*SPEF "1481-1998"
*DESIGN "s1238"
*DATE "Mon Mar 11 10:25:13 2019"
*VENDOR "Synopsys, Inc."
*PROGRAM "icc_shell"
*VERSION "L-2016.03-SP5-1"
*DESIGN_FLOW "PIN_CAP NONE"
*DIVIDER /
*DELIMITER :
*BUS_DELIMITER [ ]
*T_UNIT 1 NS
*C_UNIT 1 FF
*R_UNIT 1 OHM
*L_UNIT 1 HENRY

*NAME_MAP
*1 G11
*2 G10
*3 G1
*4 G0
*5 CK
*6 VDD
*7 GND
*8 VDDA
*9 G7
*10 G6
*11 G5
*12 G4
*13 G3
*14 G2
*15 G13
*16 G12
*17 G539
*18 G537
*19 G535
*20 G532
*21 G530
*22 G45
*23 G9
*24 G8
*25 G552
*26 G551
*27 G550
*28 G549
*29 G548
*30 G547
*31 G546
*32 G542
*33 VSS
*34 G519
*35 DFF_17/q_reg
*36 U471
*37 DFF_1/q_reg
*38 DFF_0/q_reg
*39 DFF_9/q_reg
*40 DFF_8/q_reg
*41 DFF_7/q_reg
*42 DFF_6/q_reg
*43 DFF_5/q_reg
*44 DFF_4/q_reg
*45 DFF_3/q_reg
*46 DFF_2/q_reg
*47 DFF_16/q_reg
*48 DFF_15/q_reg
*49 DFF_14/q_reg
*50 DFF_13/q_reg
*51 DFF_12/q_reg
*52 DFF_11/q_reg
*53 DFF_10/q_reg
*54 G46
*55 U609
*56 n269
*57 U557
*58 G517
*59 U351
*60 G44
*61 U571
*62 G516
*63 U349
*64 G43
*65 U597
*66 G515
*67 U434
*68 G42
*69 U602
*70 G514
*71 U436
*72 G41
*73 U465
*74 G513
*75 U444
*76 G40
*77 U603
*78 n274
*79 U308
*80 G39
*81 U384
*82 G511
*83 U398
*84 U365
*85 G38
*86 U552
*87 U66
*88 n275
*89 U472
*90 G37
*91 G509
*92 U307
*93 G36
*94 U417
*95 n270
*96 U594
*97 G35
*98 U448
*99 G507
*100 U354
*101 G34
*102 U606
*103 U464
*104 U437
*105 U373
*106 G506
*107 U450
*108 G33
*109 U531
*110 n273
*111 U348
*112 G32
*113 U452
*114 U393
*115 U386
*116 n272
*117 U462
*118 G31
*119 U463
*120 n271
*121 U355
*122 G30
*123 U454
*124 U406
*125 U366
*126 U142
*127 G502
*128 U520
*129 G29
*130 U360
*131 n170
*132 U608
*133 U600
*134 U298
*135 n256
*136 U591
*137 n255
*138 U359
*139 n9
*140 U578
*141 U453
*142 n276
*143 U607
*144 U555
*145 U550
*146 U451
*147 U442
*148 U396
*149 U392
*150 U370
*151 U369
*152 U10
*153 n98
*154 U599
*155 n307
*156 U605
*157 U604
*158 U586
*159 U399
*160 U380
*161 U374
*162 U367
*163 U1
*164 U492
*165 U446
*166 U435
*167 U413
*168 U407
*169 U400
*170 n238
*171 U580
*172 n134
*173 U548
*174 n131
*175 U339
*176 n130
*177 U338
*178 n78
*179 U598
*180 n304
*181 U172
*182 n81
*183 U315
*184 n80
*185 U419
*186 n79
*187 U516
*188 n13
*189 n123
*190 U421
*191 n51
*192 U546
*193 U498
*194 U540
*195 U15
*196 n151
*197 U601
*198 U582
*199 U487
*200 U316
*201 n139
*202 U590
*203 U589
*204 n37
*205 U461
*206 U3
*207 n89
*208 U468
*209 U415
*210 U14
*211 n96
*212 U593
*213 n19
*214 U458
*215 U433
*216 U347
*217 U303
*218 n90
*219 U522
*220 U378
*221 U331
*222 U325
*223 U304
*224 n91
*225 U420
*226 n175
*227 U553
*228 n176
*229 U375
*230 n146
*231 U585
*232 U584
*233 n21
*234 U559
*235 U485
*236 n128
*237 U596
*238 U423
*239 U410
*240 U319
*241 n234
*242 n72
*243 U595
*244 n71
*245 U491
*246 U403
*247 n94
*248 U592
*249 n95
*250 U510
*251 n97
*252 n291
*253 U514
*254 U503
*255 U300
*256 U381
*257 U368
*258 U7
*259 U564
*260 U535
*261 U523
*262 U438
*263 U404
*264 n93
*265 U385
*266 n7
*267 U556
*268 n35
*269 U340
*270 U334
*271 U299
*272 U9
*273 n257
*274 U588
*275 n259
*276 U332
*277 n258
*278 U322
*279 n136
*280 U575
*281 U562
*282 U532
*283 n70
*284 U395
*285 U336
*286 n138
*287 U517
*288 n302
*289 U560
*290 n137
*291 U337
*292 n11
*293 n308
*294 n277
*295 U493
*296 U401
*297 U364
*298 n309
*299 n110
*300 U587
*301 U513
*302 n109
*303 n111
*304 U361
*305 n112
*306 n301
*307 U549
*308 U391
*309 n49
*310 n6
*311 U581
*312 U314
*313 n144
*314 U583
*315 n149
*316 n148
*317 n147
*318 U501
*319 U302
*320 n145
*321 U567
*322 U554
*323 U486
*324 n150
*325 U570
*326 U568
*327 n142
*328 U566
*329 n143
*330 n50
*331 U573
*332 U352
*333 n158
*334 U576
*335 n237
*336 U379
*337 n61
*338 U579
*339 n60
*340 n62
*341 U477
*342 n185
*343 U577
*344 U574
*345 n36
*346 U402
*347 U317
*348 U440
*349 n155
*350 U558
*351 n184
*352 n141
*353 n69
*354 U561
*355 U515
*356 n28
*357 n198
*358 n156
*359 U572
*360 n5
*361 U569
*362 U530
*363 n162
*364 U551
*365 n4
*366 U536
*367 n42
*368 U483
*369 U313
*370 n171
*371 n192
*372 U565
*373 n195
*374 n197
*375 U389
*376 n159
*377 U305
*378 n16
*379 U534
*380 U528
*381 U529
*382 U533
*383 U5
*384 n157
*385 U326
*386 n303
*387 n193
*388 U388
*389 n194
*390 U387
*391 n196
*392 U306
*393 n187
*394 n41
*395 U460
*396 U539
*397 U11
*398 n211
*399 U563
*400 n295
*401 U416
*402 U390
*403 n206
*404 n207
*405 U371
*406 n165
*407 U382
*408 U362
*409 n23
*410 U311
*411 n188
*412 n186
*413 n68
*414 n102
*415 n160
*416 n132
*417 U318
*418 n173
*419 n174
*420 n172
*421 n161
*422 n10
*423 n300
*424 n129
*425 n135
*426 n124
*427 U405
*428 U321
*429 n52
*430 U409
*431 U328
*432 U418
*433 U16
*434 n87
*435 U333
*436 n86
*437 U545
*438 U544
*439 U527
*440 U342
*441 n88
*442 U310
*443 n85
*444 U376
*445 U372
*446 U457
*447 U430
*448 n40
*449 U499
*450 U474
*451 n248
*452 U543
*453 U541
*454 U456
*455 U459
*456 U428
*457 U4
*458 n229
*459 U6
*460 U542
*461 U502
*462 U414
*463 U394
*464 U431
*465 U350
*466 U439
*467 n106
*468 U346
*469 n298
*470 n297
*471 n83
*472 n45
*473 U441
*474 U335
*475 U12
*476 n249
*477 U467
*478 n245
*479 U519
*480 n20
*481 U500
*482 n183
*483 n100
*484 n46
*485 U323
*486 U13
*487 n84
*488 n265
*489 n243
*490 n199
*491 n200
*492 n222
*493 n103
*494 n228
*495 U476
*496 n230
*497 n227
*498 n250
*499 n221
*500 U521
*501 n108
*502 n204
*503 U443
*504 n266
*505 n267
*506 n205
*507 n140
*508 U518
*509 n3
*510 n290
*511 U511
*512 n117
*513 U327
*514 n289
*515 U512
*516 n306
*517 n305
*518 n99
*519 U473
*520 U475
*521 U8
*522 n119
*523 U478
*524 n43
*525 U489
*526 U324
*527 n17
*528 U343
*529 n202
*530 n104
*531 n26
*532 U495
*533 U358
*534 n34
*535 U494
*536 n190
*537 U490
*538 U383
*539 n244
*540 n25
*541 n208
*542 n75
*543 n260
*544 U488
*545 n242
*546 U445
*547 n12
*548 U447
*549 n215
*550 n182
*551 U484
*552 n283
*553 U412
*554 U429
*555 n212
*556 U2
*557 U455
*558 U408
*559 n92
*560 n122
*561 U329
*562 n121
*563 n120
*564 U466
*565 n63
*566 U426
*567 n33
*568 U422
*569 U363
*570 U312
*571 n231
*572 n225
*573 n32
*574 U427
*575 U344
*576 n232
*577 n216
*578 n217
*579 n29
*580 U353
*581 n48
*582 n74
*583 n39
*584 U345
*585 n118
*586 n168
*587 U449
*588 U397
*589 n64
*590 n251
*591 n253
*592 n38
*593 n252
*594 n31
*595 n210
*596 n241
*597 n239
*598 n240
*599 n219
*600 n218
*601 n133
*602 n220
*603 n181
*604 U377
*605 n236
*606 n235
*607 n127
*608 U341
*609 n233
*610 n73
*611 n24
*612 n113
*613 n180
*614 n177
*615 n107
*616 n65
*617 n66
*618 n30
*619 n56
*620 n125
*621 n126
*622 n47
*623 n279
*624 n278
*625 n76
*626 n264
*627 n169
*628 n167
*629 n166
*630 n44
*631 n163
*632 n164
*633 n203
*634 n201
*635 n105
*636 n1
*637 n153
*638 n189
*639 n154
*640 n22
*641 n178
*642 n179
*643 n67
*644 n209
*645 n101
*646 n77
*647 n254
*648 n223
*649 n27
*650 U309
*651 n224
*652 n226
*653 n152
*654 n261
*655 n2
*656 n8
*657 n14
*658 n15
*659 n18

*PORTS
*1 I *L 0.0 *S 0.0 0.0
*2 I *L 0.0 *S 0.0 0.0
*3 I *L 0.0 *S 0.0 0.0
*4 I *L 0.0 *S 0.0 0.0
*5 I *L 0.0 *S 0.0 0.0
*6 I *L 0.0 *S 0.0 0.0
*7 I *L 0.0 *S 0.0 0.0
*8 I *L 0.0 *S 0.0 0.0
*9 I *L 0.0 *S 0.0 0.0
*10 I *L 0.0 *S 0.0 0.0
*11 I *L 0.0 *S 0.0 0.0
*12 I *L 0.0 *S 0.0 0.0
*13 I *L 0.0 *S 0.0 0.0
*14 I *L 0.0 *S 0.0 0.0
*15 I *L 0.0 *S 0.0 0.0
*16 I *L 0.0 *S 0.0 0.0
*17 O *L 300.0 *S 0.0 0.0
*18 O *L 300.0 *S 0.0 0.0
*19 O *L 300.0 *S 0.0 0.0
*20 O *L 300.0 *S 0.0 0.0
*21 O *L 300.0 *S 0.0 0.0
*22 O *L 300.0 *S 0.0 0.0
*23 I *L 0.0 *S 0.0 0.0
*24 I *L 0.0 *S 0.0 0.0
*25 O *L 300.0 *S 0.0 0.0
*26 O *L 300.0 *S 0.0 0.0
*27 O *L 300.0 *S 0.0 0.0
*28 O *L 300.0 *S 0.0 0.0
*29 O *L 300.0 *S 0.0 0.0
*30 O *L 300.0 *S 0.0 0.0
*31 O *L 300.0 *S 0.0 0.0
*32 O *L 300.0 *S 0.0 0.0
*33 I *L 0.0 *S 0.0 0.0

*D_NET *34 1.380854

*CONN
*I *35:D I *L 496.4084 *C 50.631 12.393
*I *36:Y O *L 0.0 *D OA221X1_RVT *C 44.672 17.16
*N *34:3 *C 45.128 17.92
*N *34:4 *C 45.128 17.92
*N *34:5 *C 45.128 12.448
*N *34:6 *C 45.128 12.448
*N *34:7 *C 44.831 17.895
*N *34:8 *C 45.063 17.895
*N *34:9 *C 50.585 12.448
*N *34:10 *C 45.128 12.494
*N *34:11 *C 45.128 17.874

*CAP
1 *35:D 0.005054701
2 *36:Y 0.02426937
3 *34:3 0.01381425
4 *34:4 0.006370085
5 *34:5 0.01427903
6 *34:6 0.3090821
7 *34:7 0.0132527
8 *34:8 0.01738676
9 *34:9 0.3141368
10 *34:10 0.170493
11 *34:11 0.1700282
12 *34:11 *9:30 0.1613438
13 *34:10 *9:30 0.1613438

*RES
1 *34:3 *34:4 1.0
2 *34:5 *34:6 1.0
3 *36:Y *34:7 0.09312499
4 *36:Y *34:8 0.1787879
5 *34:8 *34:4 0.0475
6 *34:6 *34:9 10.81509
7 *35:D *34:9 0.16
8 *34:5 *34:10 0.02738095
9 *34:11 *34:3 0.02738096
10 *34:10 *34:11 9.508699

*END

*D_NET *5 12.88492

*CONN
*I *37:CLK I *L 619.3525 *C 42.392 46.648
*I *38:CLK I *L 619.3525 *C 42.544 6.824
*I *39:CLK I *L 619.3525 *C 50.904 46.648
*I *40:CLK I *L 619.3525 *C 50.904 50.296
*I *41:CLK I *L 619.3525 *C 50.904 29.928
*I *42:CLK I *L 619.3525 *C 50.904 36.92
*I *43:CLK I *L 619.3525 *C 37.984 50.296
*I *44:CLK I *L 619.3525 *C 50.904 26.584
*I *45:CLK I *L 619.3525 *C 50.904 20.2
*I *46:CLK I *L 619.3525 *C 8.648 13.208
*I *35:CLK I *L 619.3525 *C 50.904 13.208
*I *47:CLK I *L 619.3525 *C 42.392 50.296
*I *48:CLK I *L 619.3525 *C 27.496 50.296
*I *49:CLK I *L 619.3525 *C 50.904 16.552
*I *50:CLK I *L 619.3525 *C 29.32 50.296
*I *51:CLK I *L 619.3525 *C 9.864 50.296
*I *52:CLK I *L 619.3525 *C 8.648 6.824
*I *53:CLK I *L 619.3525 *C 50.904 6.824
*P *5 I *C 39.352 0.028
*N *5:20 *C 42.544 6.824
*N *5:21 *C 42.544 6.824
*N *5:22 *C 42.544 6.824
*N *5:23 *C 42.544 6.824
*N *5:24 *C 50.904 46.648
*N *5:25 *C 50.904 46.648
*N *5:26 *C 50.752 46.344
*N *5:27 *C 50.904 29.928
*N *5:28 *C 50.904 29.928
*N *5:29 *C 51.056 29.928
*N *5:30 *C 51.056 29.928
*N *5:31 *C 50.904 36.92
*N *5:32 *C 50.904 36.92
*N *5:33 *C 51.056 36.92
*N *5:34 *C 51.056 36.92
*N *5:35 *C 37.984 50.296
*N *5:36 *C 37.984 50.296
*N *5:37 *C 37.984 50.296
*N *5:38 *C 37.984 50.6
*N *5:39 *C 37.984 50.6
*N *5:40 *C 50.904 26.584
*N *5:41 *C 50.904 26.584
*N *5:42 *C 51.056 26.584
*N *5:43 *C 51.056 26.584
*N *5:44 *C 50.904 20.2
*N *5:45 *C 50.904 20.2
*N *5:46 *C 29.32 50.296
*N *5:47 *C 29.32 50.296
*N *5:48 *C 29.472 50.296
*N *5:49 *C 29.472 50.296
*N *5:50 *C 29.472 50.6
*N *5:51 *C 29.472 50.6
*N *5:52 *C 50.904 13.208
*N *5:53 *C 50.904 13.208
*N *5:54 *C 50.752 13.208
*N *5:55 *C 50.752 13.208
*N *5:56 *C 9.864 50.296
*N *5:57 *C 9.864 50.6
*N *5:58 *C 9.864 50.6
*N *5:59 *C 9.864 50.6
*N *5:60 *C 9.864 50.6
*N *5:61 *C 8.648 13.208
*N *5:62 *C 8.648 13.208
*N *5:63 *C 9.104 13.208
*N *5:64 *C 9.104 13.208
*N *5:65 *C 50.904 16.552
*N *5:66 *C 50.904 16.552
*N *5:67 *C 50.752 16.552
*N *5:68 *C 50.752 16.552
*N *5:69 *C 42.544 46.344
*N *5:70 *C 42.544 46.344
*N *5:71 *C 50.752 46.344
*N *5:72 *C 50.752 46.344
*N *5:73 *C 50.904 6.824
*N *5:74 *C 50.904 6.824
*N *5:75 *C 50.752 6.824
*N *5:76 *C 50.752 20.2
*N *5:77 *C 50.752 20.2
*N *5:78 *C 8.648 6.824
*N *5:79 *C 8.648 6.824
*N *5:80 *C 9.104 6.824
*N *5:81 *C 27.496 50.296
*N *5:82 *C 27.496 50.296
*N *5:83 *C 27.344 50.296
*N *5:84 *C 27.344 50.296
*N *5:85 *C 27.344 50.6
*N *5:86 *C 27.344 50.6
*N *5:87 *C 42.544 50.6
*N *5:88 *C 42.544 50.6
*N *5:89 *C 51.056 20.2
*N *5:90 *C 51.056 20.2
*N *5:91 *C 50.904 50.296
*N *5:92 *C 50.904 50.296
*N *5:93 *C 50.752 50.296
*N *5:94 *C 50.752 50.296
*N *5:95 *C 39.352 0.136
*N *5:96 *C 39.352 0.136
*N *5:97 *C 39.504 0.136
*N *5:98 *C 39.504 0.136
*N *5:99 *C 39.504 6.824
*N *5:100 *C 39.504 6.824
*N *5:101 *C 50.752 6.824
*N *5:102 *C 50.752 6.824
*N *5:103 *C 42.392 50.296
*N *5:104 *C 42.392 50.296
*N *5:105 *C 42.544 50.296
*N *5:106 *C 42.544 50.296
*N *5:107 *C 42.392 46.648
*N *5:108 *C 42.392 46.648
*N *5:109 *C 42.544 46.648
*N *5:110 *C 42.544 46.648
*N *5:111 *C 9.104 6.824
*N *5:112 *C 9.104 6.824
*N *5:113 *C 9.864 50.342
*N *5:114 *C 50.752 46.648
*N *5:115 *C 51.056 46.344

*CAP
1 *37:CLK 0.0
2 *38:CLK 0.0
3 *39:CLK 0.0
4 *40:CLK 0.0
5 *41:CLK 0.0
6 *42:CLK 0.0
7 *43:CLK 0.0
8 *44:CLK 0.0
9 *45:CLK 0.0
10 *46:CLK 0.0
11 *35:CLK 0.0
12 *47:CLK 0.0
13 *48:CLK 0.0
14 *49:CLK 0.0
15 *50:CLK 0.0
16 *51:CLK 0.0
17 *52:CLK 0.0
18 *53:CLK 0.0
19 *5 0.02118839
20 *5:20 0.01472697
21 *5:21 0.02885195
22 *5:22 0.0281255
23 *5:23 0.4620013
24 *5:24 0.01486913
25 *5:25 0.02461889
26 *5:26 0.02001556
27 *5:27 0.01498323
28 *5:28 0.03057074
29 *5:29 0.4119167
30 *5:30 0.01558751
31 *5:31 0.01495473
32 *5:32 0.03049764
33 *5:33 0.6464713
34 *5:34 0.01554291
35 *5:35 0.0147631
36 *5:36 0.02899172
37 *5:37 0.03426444
38 *5:38 0.5198863
39 *5:39 0.02003582
40 *5:40 0.01510738
41 *5:41 0.02930543
42 *5:42 0.3895002
43 *5:43 0.01419805
44 *5:44 0.01481814
45 *5:45 0.03516202
46 *5:46 0.0151719
47 *5:47 0.02933794
48 *5:48 0.02013954
49 *5:49 0.01416604
50 *5:50 0.4202979
51 *5:51 0.02013954
52 *5:52 0.0148835
53 *5:53 0.02917641
54 *5:54 0.3920636
55 *5:55 0.01429291
56 *5:56 0.01017021
57 *5:57 0.01422547
58 *5:58 0.01603467
59 *5:59 0.02826047
60 *5:60 0.7065626
61 *5:61 0.01496748
62 *5:62 0.04122362
63 *5:63 0.2626249
64 *5:64 0.02625613
65 *5:65 0.01492787
66 *5:66 0.02911713
67 *5:67 0.2800347
68 *5:68 0.01418926
69 *5:69 0.3318276
70 *5:70 0.01602539
71 *5:71 0.3318276
72 *5:72 0.1666114
73 *5:73 0.01483263
74 *5:74 0.02910419
75 *5:75 0.01427157
76 *5:76 0.14706
77 *5:77 0.01017194
78 *5:78 0.01484063
79 *5:79 0.0410991
80 *5:80 0.02625847
81 *5:81 0.01501838
82 *5:82 0.02936988
83 *5:83 0.02017507
84 *5:84 0.0143515
85 *5:85 0.7766748
86 *5:86 0.02017507
87 *5:87 0.1837355
88 *5:88 0.01605041
89 *5:89 0.2561722
90 *5:90 0.01017194
91 *5:91 0.01483517
92 *5:92 0.02908742
93 *5:93 0.1541679
94 *5:94 0.01425225
95 *5:95 0.01429652
96 *5:96 0.02118839
97 *5:97 0.2749864
98 *5:98 0.01429652
99 *5:99 1.321097
100 *5:100 0.2749864
101 *5:101 0.3282803
102 *5:102 0.2590888
103 *5:103 0.01491572
104 *5:104 0.02915165
105 *5:105 0.1613415
106 *5:106 0.01423593
107 *5:107 0.01487408
108 *5:108 0.02902958
109 *5:109 0.1613165
110 *5:110 0.0141555
111 *5:111 1.201377
112 *5:112 0.2626249
113 *5:113 0.02620489
114 *5:114 0.02976532
115 *5:115 0.3803261

*RES
1 *5:20 *38:CLK 1.0
2 *5:21 *5:20 0.5
3 *5:22 *5:21 0.5
4 *5:23 *5:22 0.5
5 *5:24 *39:CLK 1.0
6 *5:25 *5:24 0.5
7 *5:72 *5:26 0.5
8 *5:27 *41:CLK 1.0
9 *5:28 *5:27 0.5
10 *5:29 *5:30 0.5
11 *5:31 *42:CLK 1.0
12 *5:32 *5:31 0.5
13 *5:33 *5:34 0.5
14 *5:35 *43:CLK 1.0
15 *5:36 *5:35 0.5
16 *5:37 *5:36 0.5
17 *5:38 *5:39 0.5
18 *5:40 *44:CLK 1.0
19 *5:41 *5:40 0.5
20 *5:42 *5:43 0.5
21 *5:44 *45:CLK 1.0
22 *5:45 *5:44 0.5
23 *5:46 *50:CLK 1.0
24 *5:47 *5:46 0.5
25 *5:48 *5:49 0.5
26 *5:50 *5:51 0.5
27 *5:52 *35:CLK 1.0
28 *5:53 *5:52 0.5
29 *5:54 *5:55 0.5
30 *5:56 *51:CLK 1.0
31 *5:57 *5:58 0.5
32 *5:59 *5:57 0.5
33 *5:60 *5:59 0.5
34 *5:61 *46:CLK 1.0
35 *5:62 *5:61 0.5
36 *5:63 *5:64 0.5
37 *5:65 *49:CLK 1.0
38 *5:66 *5:65 0.5
39 *5:67 *5:68 0.5
40 *5:69 *5:70 0.5
41 *5:71 *5:72 0.5
42 *5:73 *53:CLK 1.0
43 *5:74 *5:73 0.5
44 *5:102 *5:75 0.5
45 *5:76 *5:77 0.5
46 *5:78 *52:CLK 1.0
47 *5:79 *5:78 0.5
48 *5:112 *5:80 0.5
49 *5:81 *48:CLK 1.0
50 *5:82 *5:81 0.5
51 *5:83 *5:84 0.5
52 *5:85 *5:86 0.5
53 *5:87 *5:88 0.5
54 *5:89 *5:90 0.5
55 *5:91 *40:CLK 1.0
56 *5:92 *5:91 0.5
57 *5:93 *5:94 0.5
58 *5:95 *5:96 0.5
59 *5:97 *5:98 0.5
60 *5:99 *5:100 0.5
61 *5:101 *5:102 0.5
62 *5:103 *47:CLK 1.0
63 *5:104 *5:103 0.5
64 *5:105 *5:106 0.5
65 *5:107 *37:CLK 1.0
66 *5:108 *5:107 0.5
67 *5:109 *5:110 0.5
68 *5:111 *5:112 0.5
69 *5:56 *5:113 0.02738095
70 *5:113 *5:58 0.3958902
71 *5 *5:96 0.1043326
72 *5:79 *5:80 0.7409739
73 *5:62 *5:64 0.7409739
74 *5:84 *5:82 0.2068502
75 *5:47 *5:49 0.2068502
76 *5:95 *5:98 0.2068502
77 *5:108 *5:110 0.2068502
78 *5:104 *5:106 0.2068502
79 *5:75 *5:74 0.2068502
80 *5:55 *5:53 0.2068502
81 *5:68 *5:66 0.2068502
82 *5:94 *5:92 0.2068502
83 *5:77 *5:45 0.1964045
84 *5:45 *5:90 0.1964045
85 *5:26 *5:114 0.4579409
86 *5:114 *5:25 0.2067477
87 *5:41 *5:43 0.2068502
88 *5:28 *5:30 0.2068502
89 *5:32 *5:34 0.2068502
90 *5:112 *5:63 11.30253
91 *5:83 *5:86 0.4781764
92 *5:48 *5:51 0.4781764
93 *5:37 *5:39 0.4781764
94 *5:97 *5:100 11.84528
95 *5:70 *5:109 0.4696042
96 *5:109 *5:105 6.415798
97 *5:105 *5:88 0.4696042
98 *5:102 *5:54 11.30171
99 *5:54 *5:67 5.873076
100 *5:67 *5:76 6.417239
101 *5:72 *5:93 6.959563
102 *5:72 *5:115 0.4643043
103 *5:89 *5:42 11.30171
104 *5:42 *5:29 5.873076
105 *5:29 *5:33 12.38651
106 *5:33 *5:115 16.72887
107 *5:111 *5:99 54.18608
108 *5:99 *5:23 5.33038
109 *5:23 *5:101 14.55848
110 *5:60 *5:85 31.11492
111 *5:85 *5:50 3.702564
112 *5:50 *5:38 15.10065
113 *5:38 *5:87 8.045234
114 *5:69 *5:71 14.55913

*END

*D_NET *54 1.761881

*CONN
*I *35:Q O *L 0.0 *D DFFX1_RVT *C 53.933 12.782
*I *55:A3 I *L 457.9212 *C 46.344 24.152
*N *54:3 *C 51.816 24.152
*N *54:4 *C 51.816 24.152
*N *54:5 *C 53.933 12.782
*N *54:6 *C 51.806 24.152
*N *54:7 *C 51.816 24.106
*N *54:8 *C 51.816 15.944
*N *54:9 *C 53.933 15.944
*N *54:10 *C 53.933 12.828

*CAP
1 *35:Q 0.0
2 *55:A3 0.2942888
3 *54:3 0.0101569
4 *54:4 0.006370362
5 *54:5 0.01015835
6 *54:6 0.3006592
7 *54:7 0.3519896
8 *54:8 0.4306318
9 *54:9 0.2181333
10 *54:10 0.1394925

*RES
1 *54:3 *54:4 1.0
2 *54:5 *35:Q 1.0
3 *55:A3 *54:6 10.82427
4 *54:6 *54:4 0.002564103
5 *54:7 *54:3 0.02738095
6 *54:8 *54:7 14.47602
7 *54:8 *54:9 3.682935
8 *54:5 *54:10 0.02738095
9 *54:10 *54:9 5.466082

*END

*D_NET *56 1.420267

*CONN
*I *47:D I *L 496.4084 *C 42.119 51.111
*I *57:Y O *L 0.0 *D AO221X1_RVT *C 41.328 38.14
*N *56:3 *C 41.784 37.224
*N *56:4 *C 41.784 37.224
*N *56:5 *C 41.784 51.208
*N *56:6 *C 41.784 51.208
*N *56:7 *C 41.784 37.27
*N *56:8 *C 41.784 51.162

*CAP
1 *47:D 0.02664914
2 *57:Y 0.05631428
3 *56:3 0.01141112
4 *56:4 0.05631428
5 *56:5 0.01026941
6 *56:6 0.02664914
7 *56:7 0.5575434
8 *56:8 0.5564017
9 *56:7 *82:14 0.1187147

*RES
1 *56:3 *56:4 1.0
2 *56:5 *56:6 1.0
3 *57:Y *56:4 0.4882354
4 *56:6 *47:D 0.3352942
5 *56:3 *56:7 0.02738095
6 *56:8 *56:5 0.02738095
7 *56:7 *56:8 24.70775

*END

*D_NET *22 1.064664

*CONN
*I *47:Q O *L 0.0 *D DFFX1_RVT *C 45.432 50.751
*P *22 O *C 42.088 58.46
*N *22:3 *C 45.28 58.2
*N *22:4 *C 45.28 58.2
*N *22:5 *C 42.088 58.2
*N *22:6 *C 42.088 58.2
*N *22:7 *C 45.432 50.751
*N *22:8 *C 45.27 58.2
*N *22:9 *C 42.088 58.246
*N *22:10 *C 45.28 58.154
*N *22:11 *C 45.28 50.765
*N *22:12 *C 45.403 50.763

*CAP
1 *47:Q 0.0
2 *22 0.008874794
3 *22:3 0.01013987
4 *22:4 0.006322519
5 *22:5 0.01011643
6 *22:6 0.1806253
7 *22:7 0.004450353
8 *22:8 0.1869478
9 *22:9 0.01899123
10 *22:10 0.3153104
11 *22:11 0.3118025
12 *22:12 0.01108235

*RES
1 *22:3 *22:4 1.0
2 *22:5 *22:6 1.0
3 *22:7 *47:Q 1.0
4 *22:6 *22:8 6.264
5 *22:8 *22:4 0.002564103
6 *22:5 *22:9 0.02738095
7 *22:9 *22 0.3031761
8 *22:10 *22:3 0.02738095
9 *22:11 *22:12 0.174939
10 *22:12 *22:7 0.04705608
11 *22:11 *22:10 13.09485

*END

*D_NET *58 1.802721

*CONN
*I *48:D I *L 496.4084 *C 27.769 51.111
*I *59:Y O *L 0.0 *D AND3X1_RVT *C 29.016 36.275
*N *58:3 *C 28.56 51.208
*N *58:4 *C 28.56 51.208
*N *58:5 *C 29.016 36.008
*N *58:6 *C 29.016 36.008
*N *58:7 *C 28.712 36.008
*N *58:8 *C 28.712 36.008
*N *58:9 *C 28.712 36.008
*N *58:10 *C 28.849 36.008
*N *58:11 *C 28.56 51.162
*N *58:12 *C 28.56 47.408
*N *58:13 *C 29.016 47.408

*CAP
1 *48:D 0.08123728
2 *59:Y 0.006682755
3 *58:3 0.01106132
4 *58:4 0.08123728
5 *58:5 0.02405822
6 *58:6 0.4713145
7 *58:7 0.02405822
8 *58:8 0.01572292
9 *58:9 0.03380247
10 *58:10 0.02476231
11 *58:11 0.1169273
12 *58:12 0.1291369
13 *58:13 0.4945854
14 *58:11 *66:16 0.06389782
15 *58:12 *66:15 0.06389782
16 *58:6 *242:11 0.02806454
17 *58:6 *242:5 0.02806454
18 *58:6 *244:13 0.1042091

*RES
1 *58:3 *58:4 1.0
2 *58:5 *58:6 0.5
3 *58:7 *58:8 0.5
4 *58:8 *58:9 1.0
5 *48:D *58:4 0.8788237
6 *58:9 *58:10 0.1814155
7 *59:Y *58:10 0.175
8 *58:11 *58:3 0.02738095
9 *58:12 *58:11 6.60576
10 *58:12 *58:13 0.7252233
11 *58:6 *58:13 20.25786
12 *58:7 *58:5 0.4781764

*END

*D_NET *60 1.954905

*CONN
*I *48:Q O *L 0.0 *D DFFX1_RVT *C 24.475 50.751
*I *61:A1 I *L 427.6624 *C 30.274 39.231
*N *60:3 *C 24.475 50.751
*N *60:4 *C 24.475 49.536
*N *60:5 *C 24.475 49.536
*N *60:6 *C 29.624 49.536
*N *60:7 *C 29.624 49.536
*N *60:8 *C 29.928 39.2
*N *60:9 *C 29.928 39.2
*N *60:10 *C 29.614 49.536
*N *60:11 *C 29.99 39.209
*N *60:12 *C 24.476 50.704
*N *60:13 *C 24.475 49.582
*N *60:14 *C 29.624 49.49
*N *60:15 *C 29.624 40.112
*N *60:16 *C 29.928 40.112
*N *60:17 *C 29.928 39.246

*CAP
1 *48:Q 0.0
2 *61:A1 0.02922532
3 *60:3 0.0110353
4 *60:4 0.01012454
5 *60:5 0.2767501
6 *60:6 0.01046964
7 *60:7 0.00790418
8 *60:8 0.01061635
9 *60:9 0.01532464
10 *60:10 0.2846542
11 *60:11 0.04454995
12 *60:12 0.05868405
13 *60:13 0.05777329
14 *60:14 0.3249877
15 *60:15 0.3331024
16 *60:16 0.0557937
17 *60:17 0.04782565
18 *60:14 *23:77 0.1880417
19 *60:15 *23:76 0.1880417

*RES
1 *60:3 *48:Q 1.0
2 *60:4 *60:5 1.0
3 *60:6 *60:7 1.0
4 *60:8 *60:9 1.0
5 *60:5 *60:10 10.178
6 *60:10 *60:7 0.002564102
7 *60:9 *60:11 0.0475
8 *60:11 *61:A1 0.4280001
9 *60:12 *60:3 0.0475
10 *60:4 *60:13 0.02738095
11 *60:13 *60:12 1.912317
12 *60:14 *60:6 0.02738095
13 *60:15 *60:16 0.4697803
14 *60:15 *60:14 16.64673
15 *60:8 *60:17 0.02738096
16 *60:17 *60:16 1.452604

*END

*D_NET *62 2.270236

*CONN
*I *49:D I *L 496.4084 *C 50.631 15.737
*I *63:Y O *L 0.0 *D AND3X1_RVT *C 30.384 17.196
*N *62:3 *C 30.688 17.616
*N *62:4 *C 30.688 17.616
*N *62:5 *C 30.688 17.16
*N *62:6 *C 30.688 17.16
*N *62:7 *C 31.296 17.16
*N *62:8 *C 31.296 17.16
*N *62:9 *C 31.296 16.552
*N *62:10 *C 31.296 16.552
*N *62:11 *C 43.76 16.552
*N *62:12 *C 43.76 16.552
*N *62:13 *C 43.76 16.552
*N *62:14 *C 44.064 16.552
*N *62:15 *C 44.064 16.552
*N *62:16 *C 44.064 15.792
*N *62:17 *C 44.064 15.792
*N *62:18 *C 50.585 15.792
*N *62:19 *C 30.688 17.57
*N *62:20 *C 44.064 15.838

*CAP
1 *49:D 0.005047715
2 *63:Y 0.01718164
3 *62:3 0.01226841
4 *62:4 0.01718164
5 *62:5 0.03754349
6 *62:6 0.02576512
7 *62:7 0.03844868
8 *62:8 0.03754349
9 *62:9 0.5062736
10 *62:10 0.03844868
11 *62:11 0.5062736
12 *62:12 0.01425616
13 *62:13 0.03647539
14 *62:14 0.02221923
15 *62:15 0.04034306
16 *62:16 0.01163648
17 *62:17 0.4041344
18 *62:18 0.4091821
19 *62:19 0.03803353
20 *62:20 0.05197954

*RES
1 *62:3 *62:4 1.0
2 *62:5 *62:6 0.5
3 *62:7 *62:8 0.5
4 *62:9 *62:10 0.5
5 *62:11 *62:12 0.5
6 *62:12 *62:13 0.5
7 *62:14 *62:15 0.5
8 *62:16 *62:17 1.0
9 *63:Y *62:4 0.1381818
10 *62:17 *62:18 12.94291
11 *49:D *62:18 0.16
12 *62:19 *62:3 0.02738095
13 *62:6 *62:19 0.6534481
14 *62:16 *62:20 0.02738095
15 *62:20 *62:15 1.191393
16 *62:5 *62:8 1.007162
17 *62:13 *62:14 0.4781764
18 *62:10 *62:7 1.007161
19 *62:9 *62:11 22.15846

*END

*D_NET *64 2.750095

*CONN
*I *49:Q O *L 0.0 *D DFFX1_RVT *C 53.944 16.116
*I *65:A5 I *L 468.0296 *C 34.868 25.805
*N *64:3 *C 34.792 25.869
*N *64:4 *C 34.792 25.869
*N *64:5 *C 34.792 23.544
*N *64:6 *C 34.792 23.544
*N *64:7 *C 53.184 23.544
*N *64:8 *C 53.184 23.544
*N *64:9 *C 53.944 16.116
*N *64:10 *C 34.792 25.823
*N *64:11 *C 53.184 18.376
*N *64:12 *C 53.944 18.376
*N *64:13 *C 53.944 16.162

*CAP
1 *49:Q 0.0
2 *65:A5 0.0107299
3 *64:3 0.0148873
4 *64:4 0.0107299
5 *64:5 0.5941921
6 *64:6 0.07968287
7 *64:7 0.5941921
8 *64:8 0.219428
9 *64:9 0.01018623
10 *64:10 0.09457015
11 *64:11 0.2588058
12 *64:12 0.1315717
13 *64:13 0.1023801
14 *64:10 *153:10 0.05461438
15 *64:6 *153:10 0.05461438
16 *64:10 *228:8 0.02195152
17 *64:6 *228:9 0.02195152
18 *64:5 *299:6 0.06695863
19 *64:5 *299:4 0.06695863
20 *64:5 *12:45 0.09612659
21 *64:5 *12:43 0.09612659
22 *64:7 *599:6 0.07471818
23 *64:7 *599:4 0.07471818

*RES
1 *65:A5 *64:4 0.1741667
2 *64:3 *64:4 1.0
3 *64:5 *64:6 0.5
4 *64:7 *64:8 0.25
5 *64:9 *49:Q 1.0
6 *64:10 *64:3 0.02738095
7 *64:6 *64:10 3.970772
8 *64:11 *64:12 1.269987
9 *64:11 *64:8 9.130619
10 *64:9 *64:13 0.02738095
11 *64:13 *64:12 3.856082
12 *64:5 *64:7 32.7427

*END

*D_NET *66 2.969816

*CONN
*I *50:D I *L 496.4084 *C 29.047 51.111
*I *67:Y O *L 0.0 *D OA222X1_RVT *C 18.072 36.312
*N *66:3 *C 18.376 36.312
*N *66:4 *C 18.376 36.312
*N *66:5 *C 18.376 47.56
*N *66:6 *C 18.376 47.56
*N *66:7 *C 28.864 47.56
*N *66:8 *C 28.864 47.56
*N *66:9 *C 28.864 51.208
*N *66:10 *C 28.864 51.208
*N *66:11 *C 18.376 35.595
*N *66:12 *C 28.854 47.56
*N *66:13 *C 18.376 36.358
*N *66:14 *C 18.376 47.514
*N *66:15 *C 28.864 47.606
*N *66:16 *C 28.864 51.162

*CAP
1 *50:D 0.01744281
2 *67:Y 0.00735507
3 *66:3 0.01065638
4 *66:4 0.03703162
5 *66:5 0.01016138
6 *66:6 0.3669919
7 *66:7 0.01145323
8 *66:8 0.007955577
9 *66:9 0.01105951
10 *66:10 0.01744281
11 *66:11 0.04438668
12 *66:12 0.3749475
13 *66:13 0.4691098
14 *66:14 0.4686148
15 *66:15 0.1136107
16 *66:16 0.113217
17 *66:16 *58:11 0.06389782
18 *66:15 *58:12 0.06389782
19 *66:12 *17:11 0.3268456
20 *66:6 *17:10 0.3268456
21 *66:13 *426:21 0.1068925

*RES
1 *66:3 *66:4 1.0
2 *66:5 *66:6 1.0
3 *66:7 *66:8 1.0
4 *66:9 *66:10 1.0
5 *67:Y *66:11 0.1721311
6 *66:11 *66:4 1.331425
7 *66:6 *66:12 20.856
8 *66:12 *66:8 0.002564102
9 *66:10 *50:D 0.2352942
10 *66:3 *66:13 0.02738095
11 *66:14 *66:5 0.02738095
12 *66:13 *66:14 19.82218
13 *66:7 *66:15 0.02738095
14 *66:16 *66:9 0.02738095
15 *66:15 *66:16 6.252335

*END

*D_NET *68 2.443061

*CONN
*I *50:Q O *L 0.0 *D DFFX1_RVT *C 32.36 50.726
*I *69:A1 I *L 481.3457 *C 22.134 39.231
*N *68:3 *C 22.632 39.2
*N *68:4 *C 22.632 39.2
*N *68:5 *C 22.632 48.016
*N *68:6 *C 22.632 48.016
*N *68:7 *C 32.36 48.016
*N *68:8 *C 32.36 48.016
*N *68:9 *C 32.36 50.726
*N *68:10 *C 22.569 39.209
*N *68:11 *C 32.35 48.016
*N *68:12 *C 22.632 39.246
*N *68:13 *C 22.632 47.97
*N *68:14 *C 32.36 48.062
*N *68:15 *C 32.36 50.68

*CAP
1 *50:Q 0.0
2 *69:A1 0.04091804
3 *68:3 0.01594655
4 *68:4 0.01830781
5 *68:5 0.01022708
6 *68:6 0.3876736
7 *68:7 0.01014472
8 *68:8 0.006365139
9 *68:9 0.01034949
10 *68:10 0.05922585
11 *68:11 0.3940388
12 *68:12 0.2435183
13 *68:13 0.2377989
14 *68:14 0.1207226
15 *68:15 0.1209273
16 *68:13 *120:7 0.0870929
17 *68:12 *120:11 0.0870929
18 *68:12 *188:15 0.03384119
19 *68:12 *188:5 0.03384119
20 *68:11 *17:11 0.1328826
21 *68:6 *17:10 0.1328826
22 *68:12 *579:86 0.04307344
23 *68:12 *579:91 0.04307344
24 *68:12 *579:90 0.08655833
25 *68:12 *579:95 0.08655833

*RES
1 *68:3 *68:4 1.0
2 *68:5 *68:6 1.0
3 *68:7 *68:8 1.0
4 *68:9 *50:Q 1.0
5 *69:A1 *68:10 0.7460001
6 *68:10 *68:4 0.04750001
7 *68:6 *68:11 19.336
8 *68:11 *68:8 0.002564103
9 *68:3 *68:12 0.02738095
10 *68:13 *68:5 0.02738095
11 *68:12 *68:13 15.47954
12 *68:7 *68:14 0.02738095
13 *68:15 *68:9 0.02738095
14 *68:14 *68:15 4.578145

*END

*D_NET *70 1.632767

*CONN
*I *51:D I *L 496.4084 *C 10.137 51.111
*I *71:Y O *L 0.0 *D OA221X1_RVT *C 16.849 41.328
*N *70:3 *C 16.552 51.056
*N *70:4 *C 16.552 51.056
*N *70:5 *C 16.552 41.328
*N *70:6 *C 16.552 41.328
*N *70:7 *C 10.183 51.056
*N *70:8 *C 16.542 51.056
*N *70:9 *C 16.562 41.303
*N *70:10 *C 16.552 41.374
*N *70:11 *C 16.552 51.01

*CAP
1 *51:D 0.005660958
2 *71:Y 0.03906282
3 *70:3 0.01009072
4 *70:4 0.006343528
5 *70:5 0.01045202
6 *70:6 0.01970633
7 *70:7 0.3295663
8 *70:8 0.3302489
9 *70:9 0.05876914
10 *70:10 0.4116136
11 *70:11 0.4112523

*RES
1 *70:3 *70:4 1.0
2 *70:5 *70:6 1.0
3 *70:7 *51:D 0.1013333
4 *70:7 *70:8 12.61784
5 *70:8 *70:4 0.002564103
6 *70:9 *70:6 0.0470202
7 *70:9 *71:Y 0.2840404
8 *70:5 *70:10 0.02738095
9 *70:11 *70:3 0.02738095
10 *70:10 *70:11 17.10802

*END

*D_NET *72 0.2784193

*CONN
*I *51:Q O *L 0.0 *D DFFX1_RVT *C 6.824 50.726
*I *73:A I *L 688.1503 *C 6.062 49.234
*N *72:3 *C 6.824 49.232
*N *72:4 *C 6.824 49.232
*N *72:5 *C 6.824 50.726
*N *72:6 *C 6.062 49.232
*N *72:7 *C 6.814 49.232
*N *72:8 *C 6.824 49.278
*N *72:9 *C 6.824 50.68

*CAP
1 *51:Q 0.0
2 *73:A 0.008333665
3 *72:3 0.01018235
4 *72:4 0.007541039
5 *72:5 0.01035416
6 *72:6 0.05094133
7 *72:7 0.0501487
8 *72:8 0.07037313
9 *72:9 0.07054495

*RES
1 *72:3 *72:4 1.0
2 *72:5 *51:Q 1.0
3 *73:A *72:6 0.000940036
4 *72:6 *72:7 1.400276
5 *72:7 *72:4 0.002564102
6 *72:3 *72:8 0.02738096
7 *72:9 *72:5 0.02738095
8 *72:8 *72:9 2.409288

*END

*D_NET *74 2.876555

*CONN
*I *52:D I *L 496.4084 *C 8.921 7.639
*I *75:Y O *L 0.0 *D OA22X1_RVT *C 14.12 28.068
*N *74:3 *C 9.104 7.736
*N *74:4 *C 9.104 7.736
*N *74:5 *C 9.104 27.8
*N *74:6 *C 9.104 27.8
*N *74:7 *C 13.816 27.8
*N *74:8 *C 13.816 27.927
*N *74:9 *C 13.905 27.927
*N *74:10 *C 9.104 7.782
*N *74:11 *C 9.104 27.754

*CAP
1 *52:D 0.02856883
2 *75:Y 0.01103263
3 *74:3 0.01010033
4 *74:4 0.02856883
5 *74:5 0.01426759
6 *74:6 0.2691645
7 *74:7 0.2779186
8 *74:8 0.01464509
9 *74:9 0.00514165
10 *74:10 0.6366714
11 *74:11 0.6408387
12 *74:11 *116:12 0.4698183
13 *74:10 *116:11 0.4698183

*RES
1 *74:3 *74:4 1.0
2 *74:5 *74:6 1.0
3 *52:D *74:4 0.1635294
4 *74:6 *74:7 9.324945
5 *74:7 *74:8 0.1911287
6 *74:8 *75:Y 0.1546875
7 *75:Y *74:9 0.06262627
8 *74:3 *74:10 0.02738095
9 *74:11 *74:5 0.02738095
10 *74:10 *74:11 35.56471

*END

*D_NET *76 3.244057

*CONN
*I *52:Q O *L 0.0 *D DFFX1_RVT *C 5.626 7.28
*I *77:A5 I *L 463.8743 *C 22.404 24.322
*N *76:3 *C 22.48 24.304
*N *76:4 *C 22.48 24.304
*N *76:5 *C 22.48 23.544
*N *76:6 *C 22.48 23.544
*N *76:7 *C 5.76 23.544
*N *76:8 *C 5.76 23.544
*N *76:9 *C 5.626 7.28
*N *76:10 *C 5.672 7.28
*N *76:11 *C 5.76 7.28
*N *76:12 *C 22.48 24.258

*CAP
1 *52:Q 0.0
2 *77:A5 0.01376564
3 *76:3 0.01463433
4 *76:4 0.01376564
5 *76:5 0.6839818
6 *76:6 0.02810204
7 *76:7 0.6839818
8 *76:8 0.5574547
9 *76:9 0.01030829
10 *76:10 0.01639036
11 *76:11 0.5635368
12 *76:12 0.04273637
13 *76:8 *118:8 0.2860285
14 *76:11 *118:7 0.2860285
15 *76:12 *184:11 0.02167096
16 *76:6 *184:11 0.02167096

*RES
1 *77:A5 *76:4 0.1741667
2 *76:3 *76:4 1.0
3 *76:5 *76:6 0.5
4 *76:7 *76:8 0.5
5 *76:9 *52:Q 1.0
6 *76:9 *76:10 0.02738095
7 *76:10 *76:11 0.1133618
8 *76:11 *76:8 28.94337
9 *76:12 *76:3 0.02738096
10 *76:6 *76:12 1.188455
11 *76:7 *76:5 29.75813

*END

*D_NET *78 1.498156

*CONN
*I *53:D I *L 496.4084 *C 50.631 7.639
*I *79:Y O *L 0.0 *D XOR2X1_RVT *C 41.936 14.706
*N *78:3 *C 50.448 7.736
*N *78:4 *C 50.448 7.736
*N *78:5 *C 50.448 14.12
*N *78:6 *C 50.448 14.12
*N *78:7 *C 42.103 14.12
*N *78:8 *C 50.438 14.12
*N *78:9 *C 50.524 7.766
*N *78:10 *C 50.448 7.782
*N *78:11 *C 50.448 14.074

*CAP
1 *53:D 0.01176857
2 *79:Y 0.01129805
3 *78:3 0.01028334
4 *78:4 0.01453949
5 *78:5 0.01017251
6 *78:6 0.007310625
7 *78:7 0.4313053
8 *78:8 0.4273179