*SPEF "1481-1998"
*DESIGN "s9234"
*DATE "Tue Mar  5 16:48:07 2019"
*VENDOR "Synopsys, Inc."
*PROGRAM "icc_shell"
*VERSION "L-2016.03-SP5-1"
*DESIGN_FLOW "PIN_CAP NONE"
*DIVIDER /
*DELIMITER :
*BUS_DELIMITER [ ]
*T_UNIT 1 NS
*C_UNIT 1 FF
*R_UNIT 1 OHM
*L_UNIT 1 HENRY

*NAME_MAP
*1 g22
*2 g107
*3 g102
*4 CK
*5 VDD
*6 GND
*7 VDDA
*8 VSS
*9 g36
*10 g32
*11 g319
*12 g314
*13 g310
*14 g306
*15 g301
*16 g23
*17 g45
*18 g44
*19 g42
*20 g41
*21 g40
*22 g39
*23 g38
*24 g37
*25 g562
*26 g561
*27 g560
*28 g559
*29 g558
*30 g557
*31 g47
*32 g46
*33 g94
*34 g89
*35 g705
*36 g702
*37 g639
*38 g567
*39 g564
*40 g563
*41 g4099
*42 g4098
*43 g3600
*44 g3222
*45 g2584
*46 g1293
*47 g1290
*48 g98
*49 g4107
*50 g4106
*51 g4105
*52 g4104
*53 g4103
*54 g4102
*55 g4101
*56 g4100
*57 g4422
*58 g4321
*59 g4307
*60 g4121
*61 g4112
*62 g4110
*63 g4109
*64 g4108
*65 g6360
*66 g6284
*67 g6282
*68 g5692
*69 g5469
*70 g5468
*71 g5137
*72 g4809
*73 g6728
*74 g6374
*75 g6372
*76 g6370
*77 g6368
*78 g6366
*79 g6364
*80 g6362
*81 g6450
*82 DFF_210/q_reg
*83 U882
*84 DFF_2/q_reg
*85 DFF_1/q_reg
*86 DFF_0/q_reg
*87 DFF_10/q_reg
*88 DFF_9/q_reg
*89 DFF_8/q_reg
*90 DFF_7/q_reg
*91 DFF_6/q_reg
*92 DFF_5/q_reg
*93 DFF_4/q_reg
*94 DFF_3/q_reg
*95 DFF_18/q_reg
*96 DFF_17/q_reg
*97 DFF_16/q_reg
*98 DFF_15/q_reg
*99 DFF_14/q_reg
*100 DFF_13/q_reg
*101 DFF_12/q_reg
*102 DFF_11/q_reg
*103 DFF_26/q_reg
*104 DFF_25/q_reg
*105 DFF_24/q_reg
*106 DFF_23/q_reg
*107 DFF_22/q_reg
*108 DFF_21/q_reg
*109 DFF_20/q_reg
*110 DFF_19/q_reg
*111 DFF_34/q_reg
*112 DFF_33/q_reg
*113 DFF_32/q_reg
*114 DFF_31/q_reg
*115 DFF_30/q_reg
*116 DFF_29/q_reg
*117 DFF_28/q_reg
*118 DFF_27/q_reg
*119 DFF_42/q_reg
*120 DFF_41/q_reg
*121 DFF_40/q_reg
*122 DFF_39/q_reg
*123 DFF_38/q_reg
*124 DFF_37/q_reg
*125 DFF_36/q_reg
*126 DFF_35/q_reg
*127 DFF_50/q_reg
*128 DFF_49/q_reg
*129 DFF_48/q_reg
*130 DFF_47/q_reg
*131 DFF_46/q_reg
*132 DFF_45/q_reg
*133 DFF_44/q_reg
*134 DFF_43/q_reg
*135 DFF_58/q_reg
*136 DFF_57/q_reg
*137 DFF_56/q_reg
*138 DFF_55/q_reg
*139 DFF_54/q_reg
*140 DFF_53/q_reg
*141 DFF_52/q_reg
*142 DFF_51/q_reg
*143 DFF_66/q_reg
*144 DFF_65/q_reg
*145 DFF_64/q_reg
*146 DFF_63/q_reg
*147 DFF_62/q_reg
*148 DFF_61/q_reg
*149 DFF_60/q_reg
*150 DFF_59/q_reg
*151 DFF_74/q_reg
*152 DFF_73/q_reg
*153 DFF_72/q_reg
*154 DFF_71/q_reg
*155 DFF_70/q_reg
*156 DFF_69/q_reg
*157 DFF_68/q_reg
*158 DFF_67/q_reg
*159 DFF_82/q_reg
*160 DFF_81/q_reg
*161 DFF_80/q_reg
*162 DFF_79/q_reg
*163 DFF_78/q_reg
*164 DFF_77/q_reg
*165 DFF_76/q_reg
*166 DFF_75/q_reg
*167 DFF_90/q_reg
*168 DFF_89/q_reg
*169 DFF_88/q_reg
*170 DFF_87/q_reg
*171 DFF_86/q_reg
*172 DFF_85/q_reg
*173 DFF_84/q_reg
*174 DFF_83/q_reg
*175 DFF_98/q_reg
*176 DFF_97/q_reg
*177 DFF_96/q_reg
*178 DFF_95/q_reg
*179 DFF_94/q_reg
*180 DFF_93/q_reg
*181 DFF_92/q_reg
*182 DFF_91/q_reg
*183 DFF_106/q_reg
*184 DFF_105/q_reg
*185 DFF_104/q_reg
*186 DFF_103/q_reg
*187 DFF_102/q_reg
*188 DFF_101/q_reg
*189 DFF_100/q_reg
*190 DFF_99/q_reg
*191 DFF_114/q_reg
*192 DFF_113/q_reg
*193 DFF_112/q_reg
*194 DFF_111/q_reg
*195 DFF_110/q_reg
*196 DFF_109/q_reg
*197 DFF_108/q_reg
*198 DFF_107/q_reg
*199 DFF_122/q_reg
*200 DFF_121/q_reg
*201 DFF_120/q_reg
*202 DFF_119/q_reg
*203 DFF_118/q_reg
*204 DFF_117/q_reg
*205 DFF_116/q_reg
*206 DFF_115/q_reg
*207 DFF_130/q_reg
*208 DFF_129/q_reg
*209 DFF_128/q_reg
*210 DFF_127/q_reg
*211 DFF_126/q_reg
*212 DFF_125/q_reg
*213 DFF_124/q_reg
*214 DFF_123/q_reg
*215 DFF_138/q_reg
*216 DFF_137/q_reg
*217 DFF_136/q_reg
*218 DFF_135/q_reg
*219 DFF_134/q_reg
*220 DFF_133/q_reg
*221 DFF_132/q_reg
*222 DFF_131/q_reg
*223 DFF_146/q_reg
*224 DFF_145/q_reg
*225 DFF_144/q_reg
*226 DFF_143/q_reg
*227 DFF_142/q_reg
*228 DFF_141/q_reg
*229 DFF_140/q_reg
*230 DFF_139/q_reg
*231 DFF_154/q_reg
*232 DFF_153/q_reg
*233 DFF_152/q_reg
*234 DFF_151/q_reg
*235 DFF_150/q_reg
*236 DFF_149/q_reg
*237 DFF_148/q_reg
*238 DFF_147/q_reg
*239 DFF_162/q_reg
*240 DFF_161/q_reg
*241 DFF_160/q_reg
*242 DFF_159/q_reg
*243 DFF_158/q_reg
*244 DFF_157/q_reg
*245 DFF_156/q_reg
*246 DFF_155/q_reg
*247 DFF_170/q_reg
*248 DFF_169/q_reg
*249 DFF_168/q_reg
*250 DFF_167/q_reg
*251 DFF_166/q_reg
*252 DFF_165/q_reg
*253 DFF_164/q_reg
*254 DFF_163/q_reg
*255 DFF_178/q_reg
*256 DFF_177/q_reg
*257 DFF_176/q_reg
*258 DFF_175/q_reg
*259 DFF_174/q_reg
*260 DFF_173/q_reg
*261 DFF_172/q_reg
*262 DFF_171/q_reg
*263 DFF_186/q_reg
*264 DFF_185/q_reg
*265 DFF_184/q_reg
*266 DFF_183/q_reg
*267 DFF_182/q_reg
*268 DFF_181/q_reg
*269 DFF_180/q_reg
*270 DFF_179/q_reg
*271 DFF_194/q_reg
*272 DFF_193/q_reg
*273 DFF_192/q_reg
*274 DFF_191/q_reg
*275 DFF_190/q_reg
*276 DFF_189/q_reg
*277 DFF_188/q_reg
*278 DFF_187/q_reg
*279 DFF_202/q_reg
*280 DFF_201/q_reg
*281 DFF_200/q_reg
*282 DFF_199/q_reg
*283 DFF_198/q_reg
*284 DFF_197/q_reg
*285 DFF_196/q_reg
*286 DFF_195/q_reg
*287 DFF_209/q_reg
*288 DFF_208/q_reg
*289 DFF_207/q_reg
*290 DFF_206/q_reg
*291 DFF_205/q_reg
*292 DFF_204/q_reg
*293 DFF_203/q_reg
*294 g59
*295 U1620
*296 U1615
*297 U1590
*298 U1379
*299 U1284
*300 U1163
*301 g6686
*302 U1423
*303 U1209
*304 g1
*305 U1230
*306 g2
*307 U1231
*308 g691
*309 U1048
*310 U3
*311 U1633
*312 U1391
*313 U1330
*314 U1319
*315 U1311
*316 U1179
*317 g14
*318 U1232
*319 g694
*320 U1054
*321 U1691
*322 U1637
*323 U1609
*324 U1466
*325 U1464
*326 U1397
*327 U1180
*328 g6452
*329 U1160
*330 g64
*331 U1161
*332 g6301
*333 U1338
*334 g532
*335 U1621
*336 U1136
*337 g6303
*338 U1184
*339 g512
*340 U1046
*341 U1042
*342 g6113
*343 U1245
*344 g161
*345 U1264
*346 U1263
*347 U1246
*348 g6936
*349 U1375
*350 g127
*351 U1376
*352 g5625
*353 U1113
*354 g277
*355 U1513
*356 U1463
*357 U1450
*358 U1447
*359 U1049
*360 g6
*361 U1671
*362 g692
*363 U1320
*364 U1183
*365 U1065
*366 U1694
*367 U1631
*368 U1606
*369 U1540
*370 U1392
*371 U1335
*372 g6109
*373 U909
*374 g152
*375 U1574
*376 U1268
*377 g6444
*378 U1196
*379 g49
*380 U1386
*381 U1384
*382 U1280
*383 U1269
*384 U1199
*385 g3910
*386 U1558
*387 g266
*388 U1622
*389 U1295
*390 g4436
*391 U1079
*392 g434
*393 U1329
*394 g4447
*395 U1083
*396 g414
*397 U1074
*398 g5696
*399 U1227
*400 g382
*401 U1223
*402 g4752
*403 U1299
*404 g135
*405 U1418
*406 U1317
*407 U1302
*408 g5474
*409 U1328
*410 g193
*411 U1294
*412 U1239
*413 n184
*414 U1569
*415 g699
*416 U1654
*417 U1289
*418 U1190
*419 n686
*420 U1303
*421 U1026
*422 g485
*423 g6295
*424 U937
*425 g582
*426 U1619
*427 U1586
*428 U1541
*429 U1535
*430 g677
*431 U1596
*432 U1360
*433 U1340
*434 U1188
*435 g6483
*436 U1128
*437 g6691
*438 U1424
*439 U1201
*440 g6480
*441 U1673
*442 g6688
*443 U1482
*444 U1203
*445 g4740
*446 U1373
*447 g131
*448 U1388
*449 g5701
*450 U1255
*451 g111
*452 U1378
*453 U1257
*454 U1256
*455 g571
*456 U1458
*457 U1250
*458 g260
*459 U1114
*460 g6310
*461 U1181
*462 g524
*463 U1135
*464 U1123
*465 g3727
*466 U1355
*467 g114
*468 U1592
*469 U1417
*470 U1402
*471 U1374
*472 U1316
*473 g666
*474 g6287
*475 U864
*476 g197
*477 U1106
*478 U870
*479 U1632
*480 U1638
*481 U1635
*482 U1642
*483 U1043
*484 U1643
*485 U1644
*486 U1641
*487 U1645
*488 U1099
*489 U4
*490 g5622
*491 g205
*492 U1545
*493 U1512
*494 U1449
*495 U1109
*496 g6292
*497 U1182
*498 g500
*499 U1110
*500 g606
*501 U1593
*502 U1526
*503 U1451
*504 g236
*505 U1568
*506 U1045
*507 g4441
*508 U1082
*509 g406
*510 U1071
*511 g5693
*512 U1226
*513 g370
*514 U1222
*515 U1216
*516 g6788
*517 U1462
*518 g548
*519 U1629
*520 g6300
*521 g508
*522 U1655
*523 U1117
*524 g5695
*525 U1225
*526 g378
*527 U1261
*528 g4761
*529 U945
*530 g650
*531 U1594
*532 U1452
*533 g3814
*534 U1688
*535 g658
*536 U982
*537 U1500
*538 U957
*539 U1304
*540 U1455
*541 U1453
*542 U1308
*543 U1567
*544 U1456
*545 U1448
*546 U1695
*547 U1457
*548 U1454
*549 U5
*550 g5531
*551 U1634
*552 U1112
*553 g204
*554 U1531
*555 U1465
*556 g6485
*557 U1125
*558 g6684
*559 U1205
*560 g642
*561 U1288
*562 U1266
*563 g230
*564 g5699
*565 U1224
*566 g394
*567 U1228
*568 U1159
*569 g6791
*570 U1124
*571 g210
*572 U1587
*573 U1576
*574 U1504
*575 U1479
*576 U1442
*577 g4455
*578 U1078
*579 g422
*580 U1322
*581 U1070
*582 g4757
*583 U1315
*584 g139
*585 n685
*586 U1025
*587 g668
*588 g3725
*589 U1354
*590 g119
*591 U1491
*592 U1353
*593 g5473
*594 U1327
*595 g184
*596 U1235
*597 g6291
*598 U935
*599 g578
*600 U1610
*601 U1421
*602 g646
*603 U1595
*604 g242
*605 U1118
*606 g598
*607 U1270
*608 U9
*609 U1474
*610 U1396
*611 g218
*612 U1116
*613 g6455
*614 U1156
*615 g79
*616 U1172
*617 U1168
*618 U1157
*619 g3768
*620 U1438
*621 g616
*622 U1495
*623 n165
*624 U1195
*625 U1158
*626 U1146
*627 U18
*628 g489
*629 U1557
*630 U1344
*631 g634
*632 U1395
*633 U858
*634 U8
*635 g286
*636 U1608
*637 g6304
*638 U1425
*639 g594
*640 U1553
*641 U1551
*642 U1305
*643 g6447
*644 U1152
*645 g54
*646 U1406
*647 U1385
*648 U1383
*649 U1262
*650 U1153
*651 g3726
*652 g122
*653 g665
*654 g478
*655 U1588
*656 U1516
*657 U1489
*658 U1081
*659 g675
*660 U1187
*661 g5629
*662 U1636
*663 U1127
*664 g209
*665 U1546
*666 U1510
*667 U1481
*668 U1108
*669 g5583
*670 g148
*671 U1380
*672 U1324
*673 g2670
*674 U1436
*675 g610
*676 U1502
*677 U1437
*678 g663
*679 g5535
*680 U1130
*681 g280
*682 U1549
*683 U1521
*684 g3844
*685 U1287
*686 g2861
*687 U1499
*688 g602
*689 g667
*690 g638
*691 U941
*692 U897
*693 U1271
*694 U1249
*695 U975
*696 U943
*697 g288
*698 U1605
*699 U1565
*700 g686
*701 U1612
*702 U1091
*703 g6114
*704 U1241
*705 g170
*706 U1597
*707 U1276
*708 U1251
*709 U1242
*710 U1236
*711 g6704
*712 U1578
*713 g492
*714 U1564
*715 g5628
*716 U1061
*717 U880
*718 g279
*719 U1515
*720 U1063
*721 g5916
*722 U1290
*723 g366
*724 U1381
*725 g5231
*726 U1581
*727 g672
*728 U1038
*729 g6108
*730 U913
*731 g143
*732 U1536
*733 U1411
*734 U1212
*735 g10
*736 g680
*737 U1537
*738 U1477
*739 U1052
*740 g6690
*741 U1666
*742 U1422
*743 g3828
*744 U989
*745 g613
*746 U1497
*747 g6794
*748 U1121
*749 U877
*750 U846
*751 g283
*752 U1579
*753 U1471
*754 U1444
*755 U1560
*756 g688
*757 U1570
*758 U1556
*759 U1358
*760 g6687
*761 U1490
*762 g28
*763 g679
*764 U1528
*765 U1527
*766 U1359
*767 U1087
*768 g4872
*769 U1434
*770 g628
*771 U1573
*772 g5291
*773 U1296
*774 g345
*775 U1346
*776 U1298
*777 g6921
*778 U1084
*779 g336
*780 U1086
*781 g287
*782 U1607
*783 g290
*784 U1602
*785 g5277
*786 U1371
*787 g341
*788 U1387
*789 g654
*790 U1598
*791 g254
*792 U1134
*793 g6787
*794 U1461
*795 g545
*796 U1626
*797 g5050
*798 U1356
*799 g353
*800 U1389
*801 U1357
*802 U1314
*803 g24
*804 g683
*805 U1653
*806 U1533
*807 U1191
*808 U1096
*809 g6293
*810 g536
*811 U1138
*812 g6307
*813 g516
*814 U1129
*815 g696
*816 U1053
*817 U1689
*818 U1467
*819 g5323
*820 U1414
*821 g338
*822 U1306
*823 g6454
*824 U1148
*825 g74
*826 U1149
*827 g6289
*828 U1331
*829 g541
*830 U1137
*831 g5471
*832 U1325
*833 g166
*834 U1326
*835 U1247
*836 g6296
*837 g504
*838 U1111
*839 g5697
*840 g386
*841 U1623
*842 U1221
*843 g5303
*844 U1312
*845 g357
*846 U1405
*847 g687
*848 U1400
*849 U1399
*850 U1090
*851 g6689
*852 U1668
*853 g5694
*854 g374
*855 U1260
*856 g4454
*857 U1077
*858 g445
*859 U1323
*860 U1076
*861 g690
*862 U863
*863 U6
*864 U876
*865 U867
*866 g6294
*867 g293
*868 U1624
*869 g5017
*870 U1562
*871 g698
*872 U1339
*873 U1281
*874 g4607
*875 U962
*876 g326
*877 U1349
*878 g6844
*879 U1122
*880 g6685
*881 U1207
*882 g5149
*883 g6299
*884 U933
*885 g586
*886 U1613
*887 U1585
*888 U1552
*889 g6792
*890 g211
*891 U1469
*892 U1441
*893 g5295
*894 U1367
*895 g349
*896 U1370
*897 U1369
*898 U1286
*899 g664
*900 g4430
*901 g441
*902 U1068
*903 g6426
*904 U987
*905 g574
*906 U1616
*907 g6290
*908 g269
*909 U1058
*910 U871
*911 U1097
*912 U1051
*913 U1050
*914 U7
*915 g4446
*916 U1075
*917 g453
*918 U1069
*919 n161
*920 g662
*921 U1697
*922 g6845
*923 U1119
*924 g4434
*925 U1072
*926 g430
*927 U1067
*928 g4444
*929 g410
*930 U1
*931 g212
*932 U1115
*933 g6298
*934 U1318
*935 g297
*936 U1625
*937 g4438
*938 U1080
*939 g402
*940 g4451
*941 g418
*942 g285
*943 U1539
*944 g3729
*945 U1352
*946 g328
*947 U1348
*948 U1131
*949 g471
*950 U1488
*951 U1484
*952 g486
*953 U1342
*954 g4443
*955 U1073
*956 g457
*957 U1345
*958 n176
*959 U1018
*960 g337
*961 U1617
*962 U1292
*963 g693
*964 U1693
*965 U1393
*966 g6453
*967 U1144
*968 g69
*969 U1145
*970 g5167
*971 U1432
*972 g631
*973 U1572
*974 g6482
*975 U1674
*976 g5472
*977 g175
*978 U1243
*979 g5630
*980 U1057
*981 g281
*982 U1547
*983 U1511
*984 U1478
*985 U1060
*986 g6309
*987 U1178
*988 g520
*989 U1126
*990 g5386
*991 U1544
*992 g669
*993 U1680
*994 g3454
*995 U1473
*996 g4458
*997 g426
*998 U1321
*999 g284
*1000 U1601
*1001 g6286
*1002 U1185
*1003 g528
*1004 U1120
*1005 g3724
*1006 U1351
*1007 g118
*1008 g4450
*1009 g449
*1010 g5624
*1011 U879
*1012 g206
*1013 U1542
*1014 U1524
*1015 U1487
*1016 U1103
*1017 g697
*1018 U869
*1019 U1692
*1020 U1493
*1021 g6793
*1022 g282
*1023 U1507
*1024 U1480
*1025 U1445
*1026 g5470
*1027 g157
*1028 U1211
*1029 g6142
*1030 U1550
*1031 g43
*1032 U1561
*1033 g685
*1034 U1538
*1035 U1403
*1036 g224
*1037 g3731
*1038 U1350
*1039 g323
*1040 U1618
*1041 U1589
*1042 U1415
*1043 U1410
*1044 U1372
*1045 U1313
*1046 g6479
*1047 U1672
*1048 g5532
*1049 g276
*1050 U1420
*1051 g4433
*1052 g437
*1053 g681
*1054 U1310
*1055 U1279
*1056 g4687
*1057 U1430
*1058 g625
*1059 U1571
*1060 g5698
*1061 g390
*1062 U1151
*1063 g248
*1064 g5533
*1065 g208
*1066 U1548
*1067 U1522
*1068 g4157
*1069 U1428
*1070 g619
*1071 U1498
*1072 g684
*1073 U1684
*1074 U1532
*1075 U1483
*1076 g5700
*1077 g398
*1078 U1142
*1079 g289
*1080 U1604
*1081 g6440
*1082 U1192
*1083 g361
*1084 U1413
*1085 U1278
*1086 U1217
*1087 g3728
*1088 g327
*1089 g4501
*1090 g6118
*1091 U1237
*1092 g188
*1093 U1275
*1094 U1274
*1095 U1238
*1096 g4219
*1097 g6481
*1098 U1675
*1099 g18
*1100 g682
*1101 U1341
*1102 U1277
*1103 g6789
*1104 U1460
*1105 g551
*1106 U1627
*1107 g6437
*1108 U985
*1109 g590
*1110 U1600
*1111 g6658
*1112 U1670
*1113 U893
*1114 g48
*1115 U1259
*1116 g6116
*1117 U1233
*1118 g179
*1119 U1234
*1120 g6702
*1121 U1575
*1122 g496
*1123 U1563
*1124 g6790
*1125 U1459
*1126 g554
*1127 U1628
*1128 g2859
*1129 g4773
*1130 U1416
*1131 g128
*1132 U1307
*1133 g5627
*1134 g278
*1135 U1543
*1136 U1525
*1137 U1519
*1138 U1066
*1139 g4497
*1140 U967
*1141 g117
*1142 g4460
*1143 U1426
*1144 g622
*1145 U1496
*1146 n28
*1147 U1031
*1148 g676
*1149 U1186
*1150 g291
*1151 U1611
*1152 g6456
*1153 U1140
*1154 g84
*1155 U1166
*1156 U1165
*1157 U1141
*1158 g6297
*1159 g465
*1160 U1591
*1161 U1337
*1162 U1334
*1163 g689
*1164 U1652
*1165 g3730
*1166 g331
*1167 g292
*1168 U1614
*1169 g4440
*1170 g461
*1171 U1343
*1172 g695
*1173 U1690
*1174 U1534
*1175 g5626
*1176 g207
*1177 U1514
*1178 U1101
*1179 g6937
*1180 U1364
*1181 g123
*1182 U1599
*1183 U1494
*1184 U1409
*1185 g6795
*1186 U1291
*1187 g332
*1188 U1440
*1189 U847
*1190 g678
*1191 U1530
*1192 U1309
*1193 n410
*1194 U1698
*1195 U1661
*1196 n411
*1197 U1656
*1198 n409
*1199 U1476
*1200 U974
*1201 n408
*1202 U1679
*1203 U1677
*1204 n27
*1205 U932
*1206 n307
*1207 U1696
*1208 U1027
*1209 n101
*1210 U1687
*1211 U1686
*1212 n224
*1213 U977
*1214 n225
*1215 U978
*1216 n197
*1217 U1377
*1218 U1366
*1219 n1
*1220 U976
*1221 n147
*1222 U16
*1223 n223
*1224 n390
*1225 n2
*1226 n693
*1227 U1664
*1228 n695
*1229 n383
*1230 n315
*1231 U1683
*1232 n694
*1233 U1665
*1234 n310
*1235 n376
*1236 n372
*1237 n316
*1238 n416
*1239 U1681
*1240 U1398
*1241 n427
*1242 U1582
*1243 U1176
*1244 n428
*1245 n202
*1246 U999
*1247 U973
*1248 n309
*1249 U950
*1250 n222
*1251 U1685
*1252 n198
*1253 U1682
*1254 n229
*1255 n230
*1256 n199
*1257 n201
*1258 U1030
*1259 n415
*1260 n196
*1261 n200
*1262 n70
*1263 n404
*1264 n4
*1265 n405
*1266 n311
*1267 n406
*1268 U966
*1269 n407
*1270 U1678
*1271 n398
*1272 U1037
*1273 U1036
*1274 U947
*1275 n400
*1276 n392
*1277 U1657
*1278 n388
*1279 n389
*1280 U1040
*1281 n387
*1282 n381
*1283 n382
*1284 U1041
*1285 n380
*1286 n394
*1287 n396
*1288 n395
*1289 U1039
*1290 n393
*1291 n402
*1292 n403
*1293 U1630
*1294 n401
*1295 n628
*1296 n549
*1297 n548
*1298 n61
*1299 U1669
*1300 n513
*1301 U892
*1302 U891
*1303 U1667
*1304 U1208
*1305 U1206
*1306 U1204
*1307 U1202
*1308 U1200
*1309 U894
*1310 g6173
*1311 n94
*1312 g6176
*1313 n413
*1314 U13
*1315 n26
*1316 n412
*1317 U1662
*1318 n29
*1319 n391
*1320 U1660
*1321 n31
*1322 n414
*1323 U1659
*1324 n25
*1325 n323
*1326 U1044
*1327 U10
*1328 n75
*1329 U964
*1330 n30
*1331 n386
*1332 n384
*1333 U956
*1334 n385
*1335 U953
*1336 n420
*1337 U940
*1338 n426
*1339 n423
*1340 n422
*1341 n108
*1342 n659
*1343 U1648
*1344 U12
*1345 n118
*1346 U1333
*1347 n116
*1348 U1332
*1349 n151
*1350 U886
*1351 U1193
*1352 U1197
*1353 U17
*1354 n296
*1355 U1640
*1356 n303
*1357 n297
*1358 n302
*1359 n304
*1360 U1639
*1361 n284
*1362 n305
*1363 n283
*1364 n301
*1365 n300
*1366 n299
*1367 U1098
*1368 n96
*1369 U1089
*1370 n286
*1371 U878
*1372 n295
*1373 U1092
*1374 n288
*1375 n281
*1376 U1095
*1377 n292
*1378 n282
*1379 n256
*1380 n602
*1381 U1104
*1382 n581
*1383 n582
*1384 U1102
*1385 U983
*1386 n255
*1387 U1503
*1388 n596
*1389 n145
*1390 n598
*1391 n591
*1392 U1100
*1393 n595
*1394 n121
*1395 n164
*1396 n149
*1397 n55
*1398 n58
*1399 n99
*1400 n110
*1401 n114
*1402 U1147
*1403 n454
*1404 n526
*1405 U1034
*1406 n620
*1407 U1285
*1408 U951
*1409 n623
*1410 U1035
*1411 n103
*1412 U1001
*1413 U988
*1414 n452
*1415 n249
*1416 U959
*1417 n136
*1418 n106
*1419 U1584
*1420 U1000
*1421 U934
*1422 n251
*1423 n87
*1424 n525
*1425 n141
*1426 U980
*1427 U936
*1428 n524
*1429 n247
*1430 U960
*1431 n129
*1432 n248
*1433 n77
*1434 U939
*1435 n520
*1436 n253
*1437 U1603
*1438 n59
*1439 n254
*1440 n119
*1441 n252
*1442 n250
*1443 n245
*1444 n5
*1445 n57
*1446 U1013
*1447 U986
*1448 n10
*1449 U1365
*1450 n109
*1451 U906
*1452 U898
*1453 n135
*1454 n158
*1455 U968
*1456 n64
*1457 U944
*1458 U903
*1459 n148
*1460 U946
*1461 U902
*1462 n62
*1463 U942
*1464 U899
*1465 n152
*1466 U1300
*1467 n32
*1468 n166
*1469 U883
*1470 n86
*1471 U1297
*1472 n604
*1473 U1024
*1474 U984
*1475 n605
*1476 U1022
*1477 n523
*1478 n20
*1479 n522
*1480 n521
*1481 U875
*1482 n519
*1483 U1583
*1484 n518
*1485 n517
*1486 n690
*1487 U1177
*1488 n612
*1489 n332
*1490 U1580
*1491 n330
*1492 U1508
*1493 n347
*1494 n331
*1495 U1029
*1496 U1020
*1497 n93
*1498 n346
*1499 n134
*1500 n343
*1501 U1577
*1502 n341
*1503 U1505
*1504 n360
*1505 n342
*1506 U1028
*1507 U1019
*1508 n72
*1509 n359
*1510 n56
*1511 n163
*1512 U928
*1513 U911
*1514 U905
*1515 n124
*1516 U1435
*1517 U1004
*1518 n95
*1519 U1433
*1520 U1006
*1521 n76
*1522 U1431
*1523 U1008
*1524 n308
*1525 n258
*1526 U1566
*1527 n257
*1528 n203
*1529 n609
*1530 n611
*1531 n610
*1532 U1229
*1533 n608
*1534 U1559
*1535 n607
*1536 n191
*1537 g2433
*1538 n419
*1539 n417
*1540 n142
*1541 n515
*1542 n514
*1543 n516
*1544 n138
*1545 U1056
*1546 n73
*1547 U1105
*1548 n368
*1549 U1486
*1550 n173
*1551 n37
*1552 U1518
*1553 n89
*1554 n365
*1555 n246
*1556 n125
*1557 n132
*1558 U915
*1559 n159
*1560 U993
*1561 U938
*1562 n54
*1563 n226
*1564 n227
*1565 n228
*1566 n79
*1567 U996
*1568 U873
*1569 n590
*1570 U1010
*1571 n146
*1572 U997
*1573 U874
*1574 n597
*1575 U1009
*1576 U1523
*1577 U1174
*1578 U1167
*1579 U1363
*1580 U1254
*1581 U1171
*1582 U1139
*1583 n272
*1584 U992
*1585 U965
*1586 n18
*1587 U1016
*1588 n584
*1589 U1107
*1590 U1011
*1591 n41
*1592 U1017
*1593 n580
*1594 U1059
*1595 U1012
*1596 U1520
*1597 U1362
*1598 U1361
*1599 U1220
*1600 U1210
*1601 U1253
*1602 U1218
*1603 n219
*1604 U994
*1605 U961
*1606 n352
*1607 n354
*1608 n353
*1609 n351
*1610 U1517
*1611 n350
*1612 n355
*1613 n356
*1614 n349
*1615 n42
*1616 n587
*1617 n90
*1618 n593
*1619 n358
*1620 n371
*1621 n40
*1622 n333
*1623 U1470
*1624 U991
*1625 n17
*1626 n344
*1627 U1468
*1628 U995
*1629 n181
*1630 U1509
*1631 U1501
*1632 U889
*1633 U1173
*1634 n266
*1635 n329
*1636 n328
*1637 U1506
*1638 n326
*1639 U1446
*1640 U1014
*1641 n325
*1642 n205
*1643 n340
*1644 n339
*1645 n337
*1646 U1443
*1647 U1015
*1648 n336
*1649 n680
*1650 U1002
*1651 U990
*1652 U1189
*1653 U1175
*1654 n270
*1655 U1132
*1656 n71
*1657 U1429
*1658 U1003
*1659 n128
*1660 n36
*1661 U1427
*1662 U1005
*1663 n140
*1664 U1439
*1665 U1007
*1666 n218
*1667 n214
*1668 U1492
*1669 n217
*1670 U1401
*1671 n211
*1672 n215
*1673 U908
*1674 U896
*1675 n216
*1676 U1412
*1677 U904
*1678 n212
*1679 n213
*1680 U1267
*1681 U923
*1682 n210
*1683 n100
*1684 n348
*1685 U1023
*1686 n361
*1687 U1021
*1688 n367
*1689 n366
*1690 n364
*1691 U1485
*1692 n363
*1693 n369
*1694 n362
*1695 n550
*1696 n506
*1697 n327
*1698 n338
*1699 n505
*1700 n421
*1701 g3599
*1702 U1475
*1703 n137
*1704 n682
*1705 n677
*1706 U848
*1707 n599
*1708 U1472
*1709 U972
*1710 U949
*1711 n45
*1712 U1408
*1713 U981
*1714 n187
*1715 U1213
*1716 U948
*1717 U1214
*1718 n127
*1719 n334
*1720 U1062
*1721 U1055
*1722 n105
*1723 n345
*1724 n357
*1725 n78
*1726 n370
*1727 n206
*1728 n19
*1729 n324
*1730 n39
*1731 n15
*1732 n335
*1733 n16
*1734 n9
*1735 U1293
*1736 U926
*1737 n679
*1738 n681
*1739 n675
*1740 U2
*1741 n684
*1742 n640
*1743 n639
*1744 n631
*1745 n630
*1746 n508
*1747 n652
*1748 n651
*1749 n674
*1750 n658
*1751 n657
*1752 n34
*1753 U930
*1754 n35
*1755 U872
*1756 n551
*1757 n649
*1758 U1301
*1759 n568
*1760 U970
*1761 n641
*1762 n50
*1763 U954
*1764 n43
*1765 U866
*1766 n613
*1767 n117
*1768 n82
*1769 U862
*1770 n479
*1771 U1194
*1772 n478
*1773 n190
*1774 U924
*1775 U1219
*1776 n566
*1777 U916
*1778 n565
*1779 U969
*1780 n616
*1781 n635
*1782 n574
*1783 n575
*1784 U856
*1785 n167
*1786 U931
*1787 n567
*1788 U1273
*1789 U920
*1790 n462
*1791 U1407
*1792 U1155
*1793 n66
*1794 n453
*1795 U963
*1796 U885
*1797 n113
*1798 U1404
*1799 n636
*1800 n481
*1801 U971
*1802 U955
*1803 U895
*1804 n126
*1805 n646
*1806 n171
*1807 n112
*1808 n239
*1809 U1394
*1810 n53
*1811 U868
*1812 n237
*1813 n238
*1814 n235
*1815 U958
*1816 n236
*1817 n240
*1818 U1390
*1819 n52
*1820 U917
*1821 n241
*1822 n242
*1823 n243
*1824 n234
*1825 n155
*1826 n122
*1827 n442
*1828 U1170
*1829 U952
*1830 U901
*1831 n488
*1832 n446
*1833 n441
*1834 U1169
*1835 n486
*1836 U1382
*1837 n68
*1838 U919
*1839 n162
*1840 n440
*1841 n447
*1842 n530
*1843 U11
*1844 n154
*1845 n207
*1846 n221
*1847 n208
*1848 n169
*1849 U998
*1850 n209
*1851 U927
*1852 U921
*1853 U860
*1854 n170
*1855 n650
*1856 n624
*1857 n619
*1858 U1368
*1859 n123
*1860 n617
*1861 n618
*1862 n81
*1863 n192
*1864 n195
*1865 n193
*1866 n194
*1867 n653
*1868 n322
*1869 n656
*1870 n562
*1871 n172
*1872 n418
*1873 n634
*1874 n570
*1875 U1347
*1876 U900
*1877 U15
*1878 n84
*1879 U925
*1880 n175
*1881 U907
*1882 U1215
*1883 n97
*1884 n399
*1885 n21
*1886 n425
*1887 n424
*1888 n497
*1889 U1336
*1890 U865
*1891 n23
*1892 n504
*1893 n503
*1894 n511
*1895 n510
*1896 n509
*1897 n314
*1898 n44
*1899 n606
*1900 n379
*1901 n375
*1902 n319
*1903 n500
*1904 U859
*1905 n24
*1906 n160
*1907 n644
*1908 n645
*1909 n120
*1910 n614
*1911 n615
*1912 n397
*1913 n492
*1914 n204
*1915 n648
*1916 n49
*1917 n647
*1918 n622
*1919 n621
*1920 n321
*1921 n320
*1922 n174
*1923 U861
*1924 n83
*1925 n676
*1926 n51
*1927 n673
*1928 n104
*1929 n538
*1930 U1244
*1931 n533
*1932 U1240
*1933 n63
*1934 n573
*1935 U1272
*1936 n534
*1937 n13
*1938 n569
*1939 U1258
*1940 n683
*1941 n473
*1942 U1198
*1943 n472
*1944 n556
*1945 U912
*1946 n555
*1947 U922
*1948 n547
*1949 U1265
*1950 U1248
*1951 n131
*1952 n539
*1953 U1252
*1954 n546
*1955 n451
*1956 U918
*1957 n463
*1958 n689
*1959 U14
*1960 n461
*1961 n468
*1962 n11
*1963 n571
*1964 n572
*1965 n483
*1966 n182
*1967 n220
*1968 n189
*1969 n130
*1970 n633
*1971 n632
*1972 n545
*1973 n532
*1974 n544
*1975 n48
*1976 n543
*1977 n12
*1978 U854
*1979 n528
*1980 n542
*1981 n541
*1982 n540
*1983 n531
*1984 n529
*1985 n527
*1986 n537
*1987 n536
*1988 n535
*1989 n629
*1990 n627
*1991 n626
*1992 n576
*1993 n558
*1994 n560
*1995 n474
*1996 n177
*1997 n557
*1998 n80
*1999 g6167
*2000 n107
*2001 g6185
*2002 n144
*2003 g6182
*2004 n156
*2005 g6170
*2006 n157
*2007 g6179
*2008 n470
*2009 n8
*2010 n471
*2011 n434
*2012 U1162
*2013 U1154
*2014 U1150
*2015 U884
*2016 U857
*2017 n469
*2018 n7
*2019 n465
*2020 U852
*2021 n476
*2022 n477
*2023 n475
*2024 n512
*2025 n183
*2026 n180
*2027 U890
*2028 n269
*2029 U887
*2030 n496
*2031 g5385
*2032 n22
*2033 n179
*2034 n435
*2035 U1143
*2036 n487
*2037 n263
*2038 U979
*2039 n69
*2040 n436
*2041 n33
*2042 n485
*2043 U1164
*2044 n429
*2045 n261
*2046 n480
*2047 n65
*2048 n67
*2049 n457
*2050 n456
*2051 n455
*2052 n6
*2053 n143
*2054 n439
*2055 n438
*2056 n437
*2057 n467
*2058 n466
*2059 n464
*2060 n445
*2061 n444
*2062 n443
*2063 n450
*2064 n449
*2065 n448
*2066 n433
*2067 n431
*2068 n430
*2069 n665
*2070 U1133
*2071 n153
*2072 n667
*2073 n666
*2074 n664
*2075 n668
*2076 n268
*2077 n265
*2078 n267
*2079 n264
*2080 n262
*2081 n378
*2082 n377
*2083 n374
*2084 n373
*2085 n318
*2086 n317
*2087 n313
*2088 n312
*2089 n670
*2090 U1047
*2091 n671
*2092 n115
*2093 n669
*2094 n150
*2095 n139
*2096 n583
*2097 n603
*2098 n14
*2099 n592
*2100 n298
*2101 n294
*2102 n102
*2103 n280
*2104 n278
*2105 U1094
*2106 n279
*2107 n277
*2108 n276
*2109 U1085
*2110 n293
*2111 n291
*2112 n290
*2113 n306
*2114 n289
*2115 n274
*2116 n287
*2117 n273
*2118 n285
*2119 n260
*2120 n178
*2121 n275
*2122 n259
*2123 n660
*2124 n588
*2125 n589
*2126 n578
*2127 U1064
*2128 n38
*2129 n586
*2130 n585
*2131 n92
*2132 n579
*2133 n577
*2134 n601
*2135 n600
*2136 n594
*2137 n663
*2138 n662
*2139 n661
*2140 n88
*2141 n98
*2142 n491
*2143 n493
*2144 n495
*2145 n499
*2146 n502
*2147 n678
*2148 n494
*2149 n490
*2150 n244
*2151 n46
*2152 n233
*2153 n232
*2154 n231
*2155 n188
*2156 n643
*2157 n642
*2158 n638
*2159 n655
*2160 n654
*2161 n672
*2162 n501
*2163 n507
*2164 n498
*2165 n561
*2166 n489
*2167 n482
*2168 n47
*2169 n564
*2170 U914
*2171 n563
*2172 n559
*2173 n554
*2174 U910
*2175 n553
*2176 n552
*2177 n637
*2178 g6189
*2179 n60
*2180 g6110
*2181 n484
*2182 n460
*2183 n459
*2184 n458
*2185 n688
*2186 n3
*2187 n74
*2188 n85
*2189 n91
*2190 n111
*2191 n133

*PORTS
*1 I *L 0.0 *S 0.0 0.0
*2 I *L 0.0 *S 0.0 0.0
*3 I *L 0.0 *S 0.0 0.0
*4 I *L 0.0 *S 0.0 0.0
*5 I *L 0.0 *S 0.0 0.0
*6 I *L 0.0 *S 0.0 0.0
*7 I *L 0.0 *S 0.0 0.0
*8 I *L 0.0 *S 0.0 0.0
*9 I *L 0.0 *S 0.0 0.0
*10 I *L 0.0 *S 0.0 0.0
*11 I *L 0.0 *S 0.0 0.0
*12 I *L 0.0 *S 0.0 0.0
*13 I *L 0.0 *S 0.0 0.0
*14 I *L 0.0 *S 0.0 0.0
*15 I *L 0.0 *S 0.0 0.0
*16 I *L 0.0 *S 0.0 0.0
*17 I *L 0.0 *S 0.0 0.0
*18 I *L 0.0 *S 0.0 0.0
*19 I *L 0.0 *S 0.0 0.0
*20 I *L 0.0 *S 0.0 0.0
*21 I *L 0.0 *S 0.0 0.0
*22 I *L 0.0 *S 0.0 0.0
*23 I *L 0.0 *S 0.0 0.0
*24 I *L 0.0 *S 0.0 0.0
*25 I *L 0.0 *S 0.0 0.0
*26 I *L 0.0 *S 0.0 0.0
*27 I *L 0.0 *S 0.0 0.0
*28 I *L 0.0 *S 0.0 0.0
*29 I *L 0.0 *S 0.0 0.0
*30 I *L 0.0 *S 0.0 0.0
*31 I *L 0.0 *S 0.0 0.0
*32 I *L 0.0 *S 0.0 0.0
*33 I *L 0.0 *S 0.0 0.0
*34 I *L 0.0 *S 0.0 0.0
*35 I *L 0.0 *S 0.0 0.0
*36 I *L 0.0 *S 0.0 0.0
*37 I *L 0.0 *S 0.0 0.0
*38 I *L 0.0 *S 0.0 0.0
*39 I *L 0.0 *S 0.0 0.0
*40 I *L 0.0 *S 0.0 0.0
*41 O *L 300.0 *S 0.0 0.0
*42 O *L 300.0 *S 0.0 0.0
*43 O *L 300.0 *S 0.0 0.0
*44 O *L 300.0 *S 0.0 0.0
*45 O *L 300.0 *S 0.0 0.0
*46 O *L 300.0 *S 0.0 0.0
*47 O *L 300.0 *S 0.0 0.0
*48 I *L 0.0 *S 0.0 0.0
*49 O *L 300.0 *S 0.0 0.0
*50 O *L 300.0 *S 0.0 0.0
*51 O *L 300.0 *S 0.0 0.0
*52 O *L 300.0 *S 0.0 0.0
*53 O *L 300.0 *S 0.0 0.0
*54 O *L 300.0 *S 0.0 0.0
*55 O *L 300.0 *S 0.0 0.0
*56 O *L 300.0 *S 0.0 0.0
*57 O *L 300.0 *S 0.0 0.0
*58 O *L 300.0 *S 0.0 0.0
*59 O *L 300.0 *S 0.0 0.0
*60 O *L 300.0 *S 0.0 0.0
*61 O *L 300.0 *S 0.0 0.0
*62 O *L 300.0 *S 0.0 0.0
*63 O *L 300.0 *S 0.0 0.0
*64 O *L 300.0 *S 0.0 0.0
*65 O *L 300.0 *S 0.0 0.0
*66 O *L 300.0 *S 0.0 0.0
*67 O *L 300.0 *S 0.0 0.0
*68 O *L 300.0 *S 0.0 0.0
*69 O *L 300.0 *S 0.0 0.0
*70 O *L 300.0 *S 0.0 0.0
*71 O *L 300.0 *S 0.0 0.0
*72 O *L 300.0 *S 0.0 0.0
*73 O *L 300.0 *S 0.0 0.0
*74 O *L 300.0 *S 0.0 0.0
*75 O *L 300.0 *S 0.0 0.0
*76 O *L 300.0 *S 0.0 0.0
*77 O *L 300.0 *S 0.0 0.0
*78 O *L 300.0 *S 0.0 0.0
*79 O *L 300.0 *S 0.0 0.0
*80 O *L 300.0 *S 0.0 0.0

*D_NET *81 0.347759

*CONN
*I *82:D I *L 496.4084 *C 91.063 81.207
*I *83:Y O *L 0.0 *D AO21X1_RVT *C 88.752 81.624
*N *81:3 *C 88.904 80.723
*N *81:4 *C 88.904 81.152
*N *81:5 *C 91.009 81.152

*CAP
1 *82:D 0.005124074
2 *83:Y 0.007692017
3 *81:3 0.03386986
4 *81:4 0.1610634
5 *81:5 0.1400096

*RES
1 *83:Y *81:3 0.2472727
2 *81:3 *81:4 0.7678741
3 *81:4 *81:5 4.112681
4 *81:5 *82:D 0.152

*END

*D_NET *4 110.8826

*CONN
*I *84:CLK I *L 619.3525 *C 79.936 33.576
*I *85:CLK I *L 619.3525 *C 62.304 19.896
*I *86:CLK I *L 619.3525 *C 15.336 33.272
*I *87:CLK I *L 619.3525 *C 10.168 30.232
*I *88:CLK I *L 619.3525 *C 29.016 23.544
*I *89:CLK I *L 619.3525 *C 29.472 13.208
*I *90:CLK I *L 619.3525 *C 46.344 23.24
*I *91:CLK I *L 619.3525 *C 9.56 40.264
*I *92:CLK I *L 619.3525 *C 47.56 76.744
*I *93:CLK I *L 619.3525 *C 14.88 53.336
*I *94:CLK I *L 619.3525 *C 24.608 90.424
*I *95:CLK I *L 619.3525 *C 91.032 46.952
*I *96:CLK I *L 619.3525 *C 21.264 63.672
*I *97:CLK I *L 619.3525 *C 77.656 46.648
*I *98:CLK I *L 619.3525 *C 91.184 50.296
*I *99:CLK I *L 619.3525 *C 19.44 13.512
*I *100:CLK I *L 619.3525 *C 47.864 16.856
*I *101:CLK I *L 619.3525 *C 91.336 66.712
*I *102:CLK I *L 619.3525 *C 44.976 73.4
*I *103:CLK I *L 619.3525 *C 11.992 49.992
*I *104:CLK I *L 619.3525 *C 21.72 60.024
*I *105:CLK I *L 619.3525 *C 74.16 90.424
*I *106:CLK I *L 619.3525 *C 12.752 13.512
*I *107:CLK I *L 619.3525 *C 69.752 6.824
*I *108:CLK I *L 619.3525 *C 37.984 90.424
*I *109:CLK I *L 619.3525 *C 21.872 56.68
*I *110:CLK I *L 619.3525 *C 24.608 40.264
*I *111:CLK I *L 619.3525 *C 79.024 60.328
*I *112:CLK I *L 619.3525 *C 69.904 29.928
*I *113:CLK I *L 619.3525 *C 66.864 67.016
*I *114:CLK I *L 619.3525 *C 31.448 10.168
*I *115:CLK I *L 619.3525 *C 65.344 26.584
*I *116:CLK I *L 619.3525 *C 77.504 6.824
*I *117:CLK I *L 619.3525 *C 63.064 29.928
*I *118:CLK I *L 619.3525 *C 13.968 20.2
*I *119:CLK I *L 619.3525 *C 50.6 73.704
*I *120:CLK I *L 619.3525 *C 15.032 43.304
*I *121:CLK I *L 619.3525 *C 86.168 49.992
*I *122:CLK I *L 619.3525 *C 78.72 80.392
*I *123:CLK I *L 619.3525 *C 64.28 33.272
*I *124:CLK I *L 619.3525 *C 19.896 90.424
*I *125:CLK I *L 619.3525 *C 91.032 56.68