*SPEF "1481-1998"
*DESIGN "s386"
*DATE "Tue Mar 12 23:20:32 2019"
*VENDOR "Synopsys, Inc."
*PROGRAM "icc_shell"
*VERSION "L-2016.03-SP5-1"
*DESIGN_FLOW "PIN_CAP NONE"
*DIVIDER /
*DELIMITER :
*BUS_DELIMITER [ ]
*T_UNIT 1 NS
*C_UNIT 1 FF
*R_UNIT 1 OHM
*L_UNIT 1 HENRY

*NAME_MAP
*1 GND
*2 VDDA
*3 VSS
*4 v5
*5 v4
*6 v3
*7 v2
*8 v1
*9 v0
*10 CK
*11 VDD
*12 v13_D_9
*13 v13_D_8
*14 v13_D_7
*15 v13_D_6
*16 v13_D_12
*17 v13_D_11
*18 v13_D_10
*19 v6
*20 Lv13_D_0
*21 DFF_5/q_reg
*22 U134
*23 DFF_4/q_reg
*24 DFF_3/q_reg
*25 DFF_2/q_reg
*26 DFF_1/q_reg
*27 DFF_0/q_reg
*28 v7
*29 U145
*30 U139
*31 U120
*32 U119
*33 U94
*34 U93
*35 U3
*36 Lv13_D_1
*37 U130
*38 v8
*39 U146
*40 U141
*41 U101
*42 U88
*43 U2
*44 Lv13_D_2
*45 U136
*46 v9
*47 U121
*48 U111
*49 U102
*50 U95
*51 Lv13_D_3
*52 U123
*53 v10
*54 U126
*55 U117
*56 U116
*57 U98
*58 Lv13_D_4
*59 U127
*60 v11
*61 U143
*62 U135
*63 U132
*64 U131
*65 U96
*66 U1
*67 Lv13_D_5
*68 U140
*69 v12
*70 U122
*71 U112
*72 n33
*73 U144
*74 n57
*75 U133
*76 n58
*77 U129
*78 n11
*79 U76
*80 U80
*81 n12
*82 U128
*83 U115
*84 n15
*85 U89
*86 n32
*87 U142
*88 n31
*89 U86
*90 n30
*91 n29
*92 n23
*93 U91
*94 U79
*95 U78
*96 n28
*97 U77
*98 n44
*99 U138
*100 n13
*101 U110
*102 n17
*103 U118
*104 n46
*105 U107
*106 n45
*107 U137
*108 U108
*109 U104
*110 n39
*111 U75
*112 U90
*113 n41
*114 U125
*115 U99
*116 U81
*117 n60
*118 n6
*119 U74
*120 n56
*121 n16
*122 U109
*123 U84
*124 n54
*125 n7
*126 U92
*127 n55
*128 n53
*129 n36
*130 U97
*131 n35
*132 n38
*133 n34
*134 n37
*135 n1
*136 n43
*137 U124
*138 n3
*139 n42
*140 U83
*141 n40
*142 n4
*143 U85
*144 n10
*145 n59
*146 n8
*147 U100
*148 Lv13_D_12
*149 n22
*150 U114
*151 n14
*152 n21
*153 n19
*154 U113
*155 n20
*156 U82
*157 n18
*158 U103
*159 Lv13_D_9
*160 n51
*161 n52
*162 Lv13_D_10
*163 n50
*164 Lv13_D_8
*165 n5
*166 n48
*167 n47
*168 Lv13_D_11
*169 n2
*170 n26
*171 n27
*172 n25
*173 Lv13_D_6
*174 n9
*175 n49
*176 n24
*177 Lv13_D_7

*PORTS
*1 I *L 0.0 *S 0.0 0.0
*2 I *L 0.0 *S 0.0 0.0
*3 I *L 0.0 *S 0.0 0.0
*4 I *L 0.0 *S 0.0 0.0
*5 I *L 0.0 *S 0.0 0.0
*6 I *L 0.0 *S 0.0 0.0
*7 I *L 0.0 *S 0.0 0.0
*8 I *L 0.0 *S 0.0 0.0
*9 I *L 0.0 *S 0.0 0.0
*10 I *L 0.0 *S 0.0 0.0
*11 I *L 0.0 *S 0.0 0.0
*12 O *L 300.0 *S 0.0 0.0
*13 O *L 300.0 *S 0.0 0.0
*14 O *L 300.0 *S 0.0 0.0
*15 O *L 300.0 *S 0.0 0.0
*16 O *L 300.0 *S 0.0 0.0
*17 O *L 300.0 *S 0.0 0.0
*18 O *L 300.0 *S 0.0 0.0
*19 I *L 0.0 *S 0.0 0.0

*D_NET *20 0.9360198

*CONN
*I *21:D I *L 496.4084 *C 22.511 15.737
*I *22:Y O *L 0.0 *D OA21X1_RVT *C 19.445 17.915
*N *20:3 *C 19.896 18.072
*N *20:4 *C 19.896 18.072
*N *20:5 *C 19.896 17.768
*N *20:6 *C 19.896 17.768
*N *20:7 *C 20.96 17.768
*N *20:8 *C 20.96 17.768
*N *20:9 *C 20.96 15.792
*N *20:10 *C 20.96 15.792
*N *20:11 *C 19.42 18.069
*N *20:12 *C 19.826 18.069
*N *20:13 *C 22.465 15.792
*N *20:14 *C 19.896 18.026
*N *20:15 *C 20.96 15.838

*CAP
1 *21:D 0.005391265
2 *22:Y 0.02387839
3 *20:3 0.0104328
4 *20:4 0.006432793
5 *20:5 0.05527489
6 *20:6 0.01841403
7 *20:7 0.05527489
8 *20:8 0.01230571
9 *20:9 0.01854314
10 *20:10 0.1429827
11 *20:11 0.04856493
12 *20:12 0.03111933
13 *20:13 0.148374
14 *20:14 0.02884683
15 *20:15 0.03084883
16 *20:8 *60:16 0.07483383
17 *20:15 *60:47 0.07483383
18 *20:8 *84:16 0.07483383
19 *20:15 *84:20 0.07483383

*RES
1 *20:3 *20:4 1.0
2 *20:5 *20:6 0.5
3 *20:7 *20:8 0.5
4 *20:9 *20:10 1.0
5 *22:Y *20:11 0.1794445
6 *20:11 *20:12 0.6491467
7 *20:12 *20:4 0.04704762
8 *20:10 *20:13 2.913834
9 *21:D *20:13 0.16
10 *20:14 *20:3 0.02738096
11 *20:6 *20:14 0.3907956
12 *20:9 *20:15 0.02738095
13 *20:15 *20:8 3.353192
14 *20:5 *20:7 1.813496

*END

*D_NET *10 4.033061

*CONN
*I *21:CLK I *L 619.3525 *C 22.784 16.552
*I *23:CLK I *L 619.3525 *C 8.344 13.512
*I *24:CLK I *L 619.3525 *C 19.288 6.824
*I *25:CLK I *L 619.3525 *C 18.832 23.24
*I *26:CLK I *L 619.3525 *C 22.784 19.896
*I *27:CLK I *L 619.3525 *C 22.784 23.24
*P *10 I *C 20.504 0.028
*N *10:8 *C 20.504 0.136
*N *10:9 *C 20.504 0.136
*N *10:10 *C 20.352 0.136
*N *10:11 *C 20.352 0.136
*N *10:12 *C 20.352 0.136
*N *10:13 *C 19.44 0.136
*N *10:14 *C 19.44 0.136
*N *10:15 *C 22.784 16.552
*N *10:16 *C 22.784 16.552
*N *10:17 *C 22.784 16.552
*N *10:18 *C 18.832 23.24
*N *10:19 *C 18.832 23.24
*N *10:20 *C 18.832 23.24
*N *10:21 *C 18.832 23.24
*N *10:22 *C 22.784 23.24
*N *10:23 *C 22.784 23.24
*N *10:24 *C 19.288 6.824
*N *10:25 *C 19.288 6.824
*N *10:26 *C 19.136 6.824
*N *10:27 *C 19.136 6.824
*N *10:28 *C 19.136 13.512
*N *10:29 *C 19.136 13.512
*N *10:30 *C 22.784 19.896
*N *10:31 *C 22.784 19.896
*N *10:32 *C 22.784 19.896
*N *10:33 *C 22.784 23.24
*N *10:34 *C 22.784 23.24
*N *10:35 *C 8.344 13.512
*N *10:36 *C 8.344 13.512
*N *10:37 *C 8.496 13.512
*N *10:38 *C 8.496 13.512
*N *10:39 *C 8.496 13.512
*N *10:40 *C 22.784 13.512
*N *10:41 *C 22.784 13.512
*N *10:42 *C 19.44 6.824

*CAP
1 *21:CLK 0.0
2 *23:CLK 0.0
3 *24:CLK 0.0
4 *25:CLK 0.0
5 *26:CLK 0.0
6 *27:CLK 0.0
7 *10 0.02132792
8 *10:8 0.01419198
9 *10:9 0.02132792
10 *10:10 0.01427799
11 *10:11 0.01419198
12 *10:12 0.0619611
13 *10:13 0.04768312
14 *10:14 0.2726472
15 *10:15 0.017332
16 *10:16 0.03295625
17 *10:17 0.2802703
18 *10:18 0.01498833
19 *10:19 0.02909782
20 *10:20 0.02824309
21 *10:21 0.1776591
22 *10:22 0.1635255
23 *10:23 0.1520732
24 *10:24 0.01490665
25 *10:25 0.02909812
26 *10:26 0.2849522
27 *10:27 0.01419147
28 *10:28 0.5781355
29 *10:29 0.271635
30 *10:30 0.02147431
31 *10:31 0.03831717
32 *10:32 0.2900698
33 *10:33 0.01488319
34 *10:34 0.02901957
35 *10:35 0.0164643
36 *10:36 0.0305659
37 *10:37 0.01401758
38 *10:38 0.0141016
39 *10:39 0.4403015
40 *10:40 0.1518515
41 *10:41 0.129356
42 *10:42 0.2859643

*RES
1 *10:8 *10:9 0.5
2 *10:10 *10:11 0.5
3 *10:12 *10:10 0.5
4 *10:13 *10:14 0.5
5 *10:15 *21:CLK 1.0
6 *10:16 *10:15 0.5
7 *10:17 *10:16 0.5
8 *10:18 *25:CLK 1.0
9 *10:19 *10:18 0.5
10 *10:20 *10:19 0.5
11 *10:21 *10:20 0.5
12 *10:22 *10:23 0.5
13 *10:24 *24:CLK 1.0
14 *10:25 *10:24 0.5
15 *10:26 *10:27 0.5
16 *10:28 *10:29 0.5
17 *10:30 *26:CLK 1.0
18 *10:31 *10:30 0.5
19 *10:32 *10:31 0.5
20 *10:33 *27:CLK 1.0
21 *10:34 *10:33 0.5
22 *10:23 *10:34 0.5
23 *10:35 *23:CLK 1.0
24 *10:36 *10:35 0.5
25 *10:37 *10:38 0.5
26 *10:39 *10:37 0.5
27 *10:40 *10:41 0.5
28 *10 *10:9 0.1043326
29 *10:36 *10:38 0.2068502
30 *10:27 *10:25 0.2068502
31 *10:11 *10:8 0.2068502
32 *10:26 *10:42 0.4643043
33 *10:26 *10:29 11.8443
34 *10:14 *10:42 11.84283
35 *10:41 *10:17 5.32942
36 *10:17 *10:32 5.873076
37 *10:32 *10:23 5.874642
38 *10:39 *10:28 18.90104
39 *10:28 *10:40 6.414994
40 *10:21 *10:22 6.961174
41 *10:13 *10:12 1.536729

*END

*D_NET *28 3.165435

*CONN
*I *21:Q O *L 0.0 *D DFFX1_RVT *C 25.824 16.117
*I *29:A3 I *L 481.0668 *C 24.912 21.568
*I *30:A1 I *L 450.5898 *C 18.951 20.656
*I *31:A1 I *L 450.5898 *C 20.753 9.408
*I *32:A3 I *L 492.0692 *C 22.051 10.624
*I *33:A2 I *L 431.813 *C 21.568 16.886
*I *34:A1 I *L 526.317 *C 25.52 12.64
*I *35:A I *L 518.4735 *C 20.198 10.915
*N *28:9 *C 22.051 10.624
*N *28:10 *C 22.176 10.472
*N *28:11 *C 22.176 10.472
*N *28:12 *C 18.68 20.2
*N *28:13 *C 18.68 20.2
*N *28:14 *C 18.951 20.656
*N *28:15 *C 20.504 10.927
*N *28:16 *C 20.504 10.927
*N *28:17 *C 25.824 12.904
*N *28:18 *C 25.824 12.904
*N *28:19 *C 24.912 21.568
*N *28:20 *C 24.912 20.2
*N *28:21 *C 24.912 20.2
*N *28:22 *C 25.824 16.117
*N *28:23 *C 20.504 10.472
*N *28:24 *C 20.504 10.472
*N *28:25 *C 20.753 9.408
*N *28:26 *C 21.568 20.2
*N *28:27 *C 21.568 20.2
*N *28:28 *C 21.568 16.886
*N *28:29 *C 25.52 10.472
*N *28:30 *C 25.52 10.472
*N *28:31 *C 25.52 20.2
*N *28:32 *C 25.52 20.2
*N *28:33 *C 25.824 12.626
*N *28:34 *C 18.68 20.656
*N *28:35 *C 18.905 20.656
*N *28:36 *C 20.504 10.881
*N *28:37 *C 20.504 9.408
*N *28:38 *C 20.707 9.408
*N *28:39 *C 21.568 16.932
*N *28:40 *C 22.111 10.624
*N *28:41 *C 22.176 10.623
*N *28:42 *C 24.912 21.522
*N *28:43 *C 25.52 12.904
*N *28:44 *C 25.52 16.096
*N *28:45 *C 25.777 12.904
*N *28:46 *C 25.777 16.096

*CAP
1 *21:Q 0.0
2 *29:A3 0.0
3 *30:A1 0.0
4 *31:A1 0.0
5 *32:A3 0.0
6 *33:A2 0.0
7 *34:A1 0.02024887
8 *35:A 0.0325188
9 *28:9 0.01152486
10 *28:10 0.1259085
11 *28:11 0.009582425
12 *28:12 0.1212175
13 *28:13 0.02927737
14 *28:14 0.01178011
15 *28:15 0.01019742
16 *28:16 0.0325188
17 *28:17 0.005572405
18 *28:18 0.01328501
19 *28:19 0.01129623
20 *28:20 0.1653497
21 *28:21 0.06598444
22 *28:22 0.006046774
23 *28:23 0.07870182
24 *28:24 0.05975934
25 *28:25 0.01156877
26 *28:26 0.2577082
27 *28:27 0.06997142
28 *28:28 0.01644502
29 *28:29 0.04720666
30 *28:30 0.1039622
31 *28:31 0.02885897
32 *28:32 0.08276706
33 *28:33 0.03353389
34 *28:34 0.03887786
35 *28:35 0.0213806
36 *28:36 0.027112
37 *28:37 0.05391603
38 *28:38 0.02264003
39 *28:39 0.08641643
40 *28:40 0.0166891
41 *28:41 0.01474666
42 *28:42 0.07728069
43 *28:43 0.2510935
44 *28:44 0.2309253
45 *28:45 0.01722115
46 *28:46 0.01872237
47 *28:27 *72:20 0.04045345
48 *28:39 *72:21 0.04045345
49 *28:32 *7:28 0.1492117
50 *28:44 *7:17 0.1492117
51 *28:27 *78:22 0.1186373
52 *28:39 *78:54 0.1186373
53 *28:29 *5:7 0.1045081
54 *28:10 *5:12 0.1045081

*RES
1 *28:9 *32:A3 1.0
2 *28:10 *28:11 0.5
3 *28:12 *28:13 0.5
4 *28:14 *30:A1 1.0
5 *28:15 *28:16 1.0
6 *28:17 *28:18 1.0
7 *28:19 *29:A3 1.0
8 *28:20 *28:21 0.5
9 *28:22 *21:Q 1.0
10 *28:23 *28:24 0.5
11 *28:25 *31:A1 1.0
12 *28:26 *28:27 0.5
13 *28:28 *33:A2 1.0
14 *28:29 *28:30 0.5
15 *28:31 *28:32 0.5
16 *35:A *28:16 0.5494167
17 *34:A1 *28:33 0.48
18 *28:33 *28:18 0.4498932
19 *28:13 *28:34 0.7376472
20 *28:34 *28:35 0.3128529
21 *28:35 *28:14 0.02555556
22 *28:36 *28:15 0.02738095
23 *28:37 *28:38 0.2917683
24 *28:38 *28:25 0.02555556
25 *28:37 *28:24 1.802564
26 *28:24 *28:36 0.6424002
27 *28:28 *28:39 0.02738095
28 *28:39 *28:27 5.73737
29 *28:9 *28:40 0.03448276
30 *28:40 *28:41 0.1752586
31 *28:11 *28:41 0.204836
32 *28:42 *28:19 0.02738095
33 *28:21 *28:42 2.268461
34 *28:30 *28:43 4.247222
35 *28:43 *28:44 5.601725
36 *28:44 *28:32 7.231205
37 *28:43 *28:45 0.3687532
38 *28:45 *28:17 0.01424243
39 *28:44 *28:46 0.3687532
40 *28:46 *28:22 0.04750001
41 *28:12 *28:26 5.060844
42 *28:26 *28:20 5.873075
43 *28:20 *28:31 1.001152
44 *28:23 *28:10 2.89194
45 *28:10 *28:29 5.874642

*END

*D_NET *36 0.7247654

*CONN
*I *23:D I *L 496.4084 *C 8.617 14.327
*I *37:Y O *L 0.0 *D AND2X1_RVT *C 15.319 14.455
*N *36:3 *C 15.319 14.455
*N *36:4 *C 8.952 14.424
*N *36:5 *C 8.952 14.424
*N *36:6 *C 8.952 14.424
*N *36:7 *C 15.032 14.424
*N *36:8 *C 15.032 14.424
*N *36:9 *C 15.296 14.451

*CAP
1 *23:D 0.05121318
2 *37:Y 0.0
3 *36:3 0.003141416
4 *36:4 0.01526451
5 *36:5 0.05121318
6 *36:6 0.2336933
7 *36:7 0.2184288
8 *36:8 0.02393368
9 *36:9 0.02707509
10 *36:7 *167:6 0.05040114
11 *36:6 *167:5 0.05040114

*RES
1 *36:3 *37:Y 1.0
2 *36:4 *36:5 1.0
3 *36:6 *36:4 0.5
4 *36:7 *36:8 0.5
5 *23:D *36:5 0.342353
6 *36:8 *36:9 0.3750001
7 *36:9 *36:3 0.0475
8 *36:6 *36:7 10.7598

*END

*D_NET *38 3.295692

*CONN
*I *23:Q O *L 0.0 *D DFFX1_RVT *C 5.304 13.943
*I *39:A1 I *L 450.5898 *C 22.173 12.792
*I *40:A1 I *L 503.5117 *C 17.031 20.96
*I *41:A2 I *L 442.1154 *C 14.88 22.48
*I *42:A3 I *L 412.1762 *C 20.808 12.449
*I *43:A I *L 688.1503 *C 18.073 15.794
*N *38:7 *C 17.616 15.792
*N *38:8 *C 17.616 15.792
*N *38:9 *C 17.008 20.504
*N *38:10 *C 17.008 20.504
*N *38:11 *C 17.312 20.504
*N *38:12 *C 17.312 20.504
*N *38:13 *C 17.312 16.248
*N *38:14 *C 17.312 16.248
*N *38:15 *C 17.616 16.248
*N *38:16 *C 17.616 16.248
*N *38:17 *C 14.88 22.48
*N *38:18 *C 14.88 21.416
*N *38:19 *C 14.88 21.416
*N *38:20 *C 17.008 21.416
*N *38:21 *C 17.008 21.416
*N *38:22 *C 5.304 12.904
*N *38:23 *C 5.304 12.904
*N *38:24 *C 5.304 13.943
*N *38:25 *C 17.616 12.904
*N *38:26 *C 17.616 12.904
*N *38:27 *C 17.031 20.96
*N *38:28 *C 21.872 12.752
*N *38:29 *C 21.872 12.752
*N *38:30 *C 21.872 12.904
*N *38:31 *C 21.872 12.904
*N *38:32 *C 17.802 15.822
*N *38:33 *C 21.872 12.448
*N *38:34 *C 21.897 12.742
*N *38:35 *C 22.167 12.754
*N *38:36 *C 5.304 13.897
*N *38:37 *C 14.88 22.434
*N *38:38 *C 17.031 20.899
*N *38:39 *C 17.031 21.021
*N *38:40 *C 17.616 15.746
*N *38:41 *C 17.616 15.838

*CAP
1 *23:Q 0.0
2 *39:A1 0.03774767
3 *40:A1 0.0
4 *41:A2 0.0
5 *42:A3 0.08731545
6 *43:A 0.03366429
7 *38:7 0.01684105
8 *38:8 0.0151246
9 *38:9 0.01807606
10 *38:10 0.006067155
11 *38:11 0.1817936
12 *38:12 0.01807606
13 *38:13 0.1817936
14 *38:14 0.02258757
15 *38:15 0.02258757
16 *38:16 0.03152922
17 *38:17 0.01086422
18 *38:18 0.1017975
19 *38:19 0.04620257
20 *38:20 0.1017975
21 *38:21 0.007725624
22 *38:22 0.4226637
23 *38:23 0.04555833
24 *38:24 0.01032403
25 *38:25 0.606783
26 *38:26 0.1429379
27 *38:27 0.01333163
28 *38:28 0.01862632
29 *38:29 0.02016518
30 *38:30 0.1841192
31 *38:31 0.01862632
32 *38:32 0.04878888
33 *38:33 0.1025435
34 *38:34 0.03601497
35 *38:35 0.006669809
36 *38:36 0.05588236
37 *38:37 0.05706679
38 *38:38 0.01260924
39 *38:39 0.01451516
40 *38:40 0.146257
41 *38:41 0.04505122
42 *38:12 *90:12 0.004392975
43 *38:9 *90:12 0.004392975
44 *38:21 *90:10 0.003097871
45 *38:10 *90:10 0.04331053
46 *38:39 *91:9 0.03689572
47 *38:25 *142:17 0.1002678
48 *38:25 *142:5 0.1002678
49 *38:25 *142:13 1e-07
50 *38:19 *165:11 0.0390678
51 *38:17 *165:10 0.0001031905
52 *38:37 *165:12 0.0004159568
53 *38:17 *165:8 0.0002941987
54 *38:37 *165:8 0.01305887

*RES
1 *38:7 *38:8 1.0
2 *38:9 *38:10 0.5
3 *38:11 *38:12 0.5
4 *38:13 *38:14 0.5
5 *38:15 *38:16 0.5
6 *38:17 *41:A2 1.0
7 *38:18 *38:19 0.5
8 *38:20 *38:21 0.5
9 *38:22 *38:23 0.5
10 *38:24 *23:Q 1.0
11 *38:25 *38:26 0.5
12 *38:27 *40:A1 1.0
13 *38:28 *38:29 1.0
14 *38:30 *38:31 0.5
15 *38:8 *38:32 0.05
16 *38:32 *43:A 0.8778
17 *42:A3 *38:33 2.148
18 *38:29 *38:34 0.152
19 *38:33 *38:29 0.5063278
20 *38:34 *39:A1 0.275
21 *39:A1 *38:35 0.054625
22 *38:36 *38:24 0.02738095
23 *38:23 *38:36 1.683269
24 *38:37 *38:17 0.02738095
25 *38:19 *38:37 1.727689
26 *38:38 *38:27 0.04836037
27 *38:27 *38:39 0.04836037
28 *38:10 *38:38 0.7396429
29 *38:39 *38:21 0.7396429
30 *38:40 *38:7 0.05476191
31 *38:7 *38:41 0.05476191
32 *38:26 *38:40 4.978759
33 *38:41 *38:16 0.6575974
34 *38:28 *38:31 0.2068502
35 *38:22 *38:25 21.88661
36 *38:25 *38:30 7.502542
37 *38:18 *38:20 3.707236
38 *38:9 *38:12 0.4781764
39 *38:14 *38:15 0.4781764
40 *38:13 *38:11 7.503755

*END

*D_NET *44 1.021663

*CONN
*I *24:D I *L 496.4084 *C 19.015 7.639
*I *45:Y O *L 0.0 *D NAND3X0_RVT *C 10.928 9.689
*N *44:3 *C 11.232 9.256
*N *44:4 *C 11.232 9.256
*N *44:5 *C 11.232 7.736
*N *44:6 *C 11.232 7.736
*N *44:7 *C 18.832 7.736
*N *44:8 *C 18.832 7.736
*N *44:9 *C 18.832 7.68
*N *44:10 *C 18.832 7.68
*N *44:11 *C 11.232 9.21

*CAP
1 *24:D 0.01720757
2 *45:Y 0.02083651
3 *44:3 0.01310005
4 *44:4 0.02083651
5 *44:5 0.1347954
6 *44:6 0.05958838
7 *44:7 0.1347954
8 *44:8 0.02038462
9 *44:9 0.02038462
10 *44:10 0.01720757
11 *44:11 0.07268843
12 *44:7 *46:15 0.1125275
13 *44:5 *46:13 0.1125275
14 *44:11 *98:7 0.04047557
15 *44:7 *151:15 0.1121538
16 *44:5 *151:11 0.1121538

*RES
1 *44:3 *44:4 1.0
2 *44:5 *44:6 0.5
3 *44:7 *44:8 0.5
4 *44:9 *44:10 1.0
5 *45:Y *44:4 0.1881818
6 *44:10 *24:D 0.2008854
7 *44:11 *44:3 0.02738096
8 *44:6 *44:11 2.539146
9 *44:9 *44:8 0.03111111
10 *44:5 *44:7 13.47357

*END

*D_NET *46 2.003161

*CONN
*I *24:Q O *L 0.0 *D DFFX1_RVT *C 22.328 7.245
*I *47:A I *L 688.1503 *C 12.144 12.475
*I *48:A1 I *L 526.317 *C 12.144 14.112
*I *49:A2 I *L 519.0556 *C 13.373 8.765
*I *50:A2 I *L 499.5953 *C 13.056 6.825
*N *46:6 *C 13.056 7.28
*N *46:7 *C 13.056 7.28
*N *46:8 *C 12.144 12.475
*N *46:9 *C 13.056 8.8
*N *46:10 *C 13.056 8.8
*N *46:11 *C 12.144 8.8
*N *46:12 *C 12.144 8.8
*N *46:13 *C 13.208 7.432
*N *46:14 *C 13.208 7.432
*N *46:15 *C 22.328 7.432
*N *46:16 *C 22.328 7.432
*N *46:17 *C 22.328 7.245
*N *46:18 *C 12.144 14.112
*N *46:19 *C 12.993 8.812
*N *46:20 *C 13.004 6.825
*N *46:21 *C 12.982 6.883
*N *46:22 *C 12.144 8.846
*N *46:23 *C 12.144 12.429
*N *46:24 *C 12.144 12.521
*N *46:25 *C 12.144 14.066
*N *46:26 *C 13.056 7.432
*N *46:27 *C 13.056 8.754
*N *46:28 *C 22.328 7.291

*CAP
1 *24:Q 0.0
2 *47:A 0.0
3 *48:A1 0.0
4 *49:A2 0.02151644
5 *50:A2 0.03882621
6 *46:6 0.01133531
7 *46:7 0.03220042
8 *46:8 0.01747283
9 *46:9 0.01151192
10 *46:10 0.02599757
11 *46:11 0.01317244
12 *46:12 0.07708362
13 *46:13 0.2862221
14 *46:14 0.01352715
15 *46:15 0.2862221
16 *46:16 0.01143867
17 *46:17 0.01046177
18 *46:18 0.01446442
19 *46:19 0.08156476
20 *46:20 0.009063811
21 *46:21 0.002438019
22 *46:22 0.07707455
23 *46:23 0.06741086
24 *46:24 0.1099035
25 *46:25 0.1104039
26 *46:26 0.08680617
27 *46:27 0.07345564
28 *46:28 0.02190045
29 *46:15 *44:7 0.1125275
30 *46:13 *44:5 0.1125275
31 *46:23 *4:25 0.1333157
32 *46:22 *4:25 0.1333157

*RES
1 *46:6 *46:7 1.0
2 *46:8 *47:A 1.0
3 *46:9 *46:10 1.0
4 *46:11 *46:12 1.0
5 *46:13 *46:14 0.5
6 *46:15 *46:16 0.5
7 *46:17 *24:Q 1.0
8 *46:18 *48:A1 1.0
9 *46:12 *46:19 1.638
10 *46:19 *46:10 0.1615
11 *46:20 *50:A2 0.04210821
12 *46:21 *46:20 0.002000001
13 *46:10 *49:A2 0.3855883
14 *50:A2 *46:7 0.8091132
15 *46:11 *46:22 0.02738095
16 *46:23 *46:8 0.05476191
17 *46:8 *46:24 0.05476191
18 *46:25 *46:18 0.02738095
19 *46:22 *46:23 6.300532
20 *46:24 *46:25 2.664144
21 *46:6 *46:26 0.1934908
22 *46:26 *46:14 0.08612701
23 *46:27 *46:9 0.02738095
24 *46:26 *46:27 2.263865
25 *46:17 *46:28 0.02738095
26 *46:28 *46:16 0.2016078
27 *46:13 *46:15 16.1875

*END

*D_NET *51 1.423847

*CONN
*I *25:D I *L 496.4084 *C 18.559 22.425
*I *52:Y O *L 0.0 *D AO21X1_RVT *C 15.64 11.976
*N *51:3 *C 15.792 13.056
*N *51:4 *C 15.792 13.056
*N *51:5 *C 15.792 18.376
*N *51:6 *C 15.792 18.376
*N *51:7 *C 18.072 18.376
*N *51:8 *C 18.072 18.376
*N *51:9 *C 18.072 22.328
*N *51:10 *C 18.072 22.328
*N *51:11 *C 15.77 12.931
*N *51:12 *C 15.792 13.102
*N *51:13 *C 18.072 22.282

*CAP
1 *25:D 0.04249543
2 *52:Y 0.006777094
3 *51:3 0.01123759
4 *51:4 0.007224772
5 *51:5 0.06366172
6 *51:6 0.2215076
7 *51:7 0.06366172
8 *51:8 0.1440399
9 *51:9 0.01238558
10 *51:10 0.04249543
11 *51:11 0.01400187
12 *51:12 0.2327452
13 *51:13 0.1564255
14 *51:7 *58:5 0.02908277
15 *51:5 *58:5 0.02908277
16 *51:6 *92:12 0.0594622
17 *51:12 *92:40 0.0594622
18 *51:7 *117:6 0.03217111
19 *51:5 *117:5 0.03217111
20 *51:13 *129:20 0.06049293
21 *51:8 *129:20 0.06049293
22 *51:13 *169:7 0.02138474
23 *51:8 *169:6 0.02138474

*RES
1 *51:3 *51:4 1.0
2 *51:5 *51:6 0.5
3 *51:7 *51:8 0.5
4 *51:9 *51:10 1.0
5 *52:Y *51:11 0.2236364
6 *51:11 *51:4 0.1009375
7 *51:10 *25:D 0.5929412
8 *51:3 *51:12 0.02738095
9 *51:12 *51:6 9.318889
10 *51:13 *51:9 0.02738095
11 *51:8 *51:13 6.875662
12 *51:5 *51:7 3.971254

*END

*D_NET *53 3.167467

*CONN
*I *25:Q O *L 0.0 *D DFFX1_RVT *C 21.872 22.808
*I *54:A1 I *L 503.5117 *C 12.621 10.928
*I *55:A I *L 688.1503 *C 11.233 19.138
*I *56:A3 I *L 393.9097 *C 9.56 17.312
*I *49:A1 I *L 496.1498 *C 13.208 9.104
*I *57:A1 I *L 543.9185 *C 10.472 12.6
*N *53:7 *C 10.472 12.6
*N *53:8 *C 10.32 17.312
*N *53:9 *C 10.32 17.312
*N *53:10 *C 10.472 11.688
*N *53:11 *C 10.472 11.688
*N *53:12 *C 13.208 11.688
*N *53:13 *C 13.208 11.688
*N *53:14 *C 21.872 22.808
*N *53:15 *C 13.208 9.104
*N *53:16 *C 10.32 19.136
*N *53:17 *C 10.32 19.136
*N *53:18 *C 10.32 22.328
*N *53:19 *C 10.32 22.328
*N *53:20 *C 21.863 22.328
*N *53:21 *C 21.863 22.328
*N *53:22 *C 12.621 10.928
*N *53:23 *C 10.31 17.312
*N *53:24 *C 10.452 19.136
*N *53:25 *C 11.233 19.136
*N *53:26 *C 10.32 17.266
*N *53:27 *C 10.32 17.358
*N *53:28 *C 10.32 19.09
*N *53:29 *C 10.32 19.182
*N *53:30 *C 10.32 13.208
*N *53:31 *C 10.472 13.208
*N *53:32 *C 10.472 12.554
*N *53:33 *C 10.472 12.646
*N *53:34 *C 12.667 10.928
*N *53:35 *C 13.208 10.928
*N *53:36 *C 13.208 9.15
*N *53:37 *C 21.873 22.747

*CAP
1 *25:Q 0.0
2 *54:A1 0.0
3 *55:A 0.05006197
4 *56:A3 0.05927898
5 *49:A1 0.0
6 *57:A1 0.0
7 *53:7 0.01742124
8 *53:8 0.01554034
9 *53:9 0.008051833
10 *53:10 0.1330092
11 *53:11 0.06353982
12 *53:12 0.1330092
13 *53:13 0.0406758
14 *53:14 0.01039204
15 *53:15 0.01104694
16 *53:16 0.0137381
17 *53:17 0.01741294
18 *53:18 0.4217874
19 *53:19 0.0711672
20 *53:20 0.4217874
21 *53:21 0.02209804
22 *53:22 0.01454849
23 *53:23 0.06733081
24 *53:24 0.05292458
25 *53:25 0.01455034
26 *53:26 0.08114956
27 *53:27 0.09444741
28 *53:28 0.08544948
29 *53:29 0.08192147
30 *53:30 0.08917977
31 *53:31 0.04880635
32 *53:32 0.0666886
33 *53:33 0.05149001
34 *53:34 0.05103619
35 *53:35 0.1265635
36 *53:36 0.06044697
37 *53:37 0.03249009
38 *53:20 *67:5 0.07451867
39 *53:20 *67:7 0.07451867
40 *53:26 *100:11 0.02479137
41 *53:26 *100:12 0.02479137
42 *53:26 *9:10 0.08800109
43 *53:30 *9:33 0.08800109
44 *53:35 *139:11 0.03091792
45 *53:36 *139:12 0.03091792
46 *53:19 *168:4 0.07668996
47 *53:29 *168:4 0.07668996
48 *53:30 *167:5 0.02429377
49 *53:30 *167:3 0.02429377

*RES
1 *53:7 *57:A1 1.0
2 *53:8 *53:9 1.0
3 *53:10 *53:11 0.5
4 *53:12 *53:13 0.5
5 *53:14 *25:Q 1.0
6 *53:15 *49:A1 1.0
7 *53:16 *53:17 1.0
8 *53:18 *53:19 0.5
9 *53:20 *53:21 0.5
10 *53:22 *54:A1 1.0
11 *56:A3 *53:23 1.401961
12 *53:23 *53:9 0.002564102
13 *53:17 *53:24 0.05389148
14 *53:24 *55:A 1.43
15 *55:A *53:25 0.001333333
16 *53:26 *53:8 0.05476191
17 *53:8 *53:27 0.05476191
18 *53:28 *53:16 0.05476191
19 *53:16 *53:29 0.05476191
20 *53:30 *53:31 0.2138528
21 *53:30 *53:26 7.147114
22 *53:27 *53:28 2.997535
23 *53:29 *53:19 5.522118
24 *53:32 *53:7 0.05476191
25 *53:7 *53:33 0.05476191
26 *53:11 *53:32 1.45779
27 *53:33 *53:31 0.9127799
28 *53:22 *53:34 0.02738096
29 *53:34 *53:35 0.8833498
30 *53:15 *53:36 0.02738095
31 *53:36 *53:35 3.078107
32 *53:35 *53:13 1.266989
33 *53:21 *53:37 0.7600001
34 *53:37 *53:14 0.0475
35 *53:18 *53:20 20.51392
36 *53:10 *53:12 4.791435

*END

*D_NET *58 1.025465

*CONN
*I *26:D I *L 496.4084 *C 22.511 19.081
*I *59:Y O *L 0.0 *D AO22X1_RVT *C 16.096 18.084
*N *58:3 *C 16.552 17.16
*N *58:4 *C 16.552 17.16
*N *58:5 *C 16.552 18.68
*N *58:6 *C 16.552 18.68
*N *58:7 *C 22.328 18.68
*N *58:8 *C 22.328 18.68
*N *58:9 *C 22.328 18.984
*N *58:10 *C 22.328 18.984
*N *58:11 *C 16.552 17.206
*N *58:12 *C 22.328 18.938

*CAP
1 *26:D 0.01936021
2 *59:Y 0.05445877
3 *58:3 1e-10
4 *58:4 0.05445877
5 *58:5 0.1483997
6 *58:6 0.001906935
7 *58:7 0.1483997
8 *58:8 0.02015054
9 *58:9 0.01361916
10 *58:10 0.01936021
11 *58:11 0.001906943
12 *58:12 0.0337697
13 *58:5 *51:7 0.02908277
14 *58:5 *51:5 0.02908277
15 *58:5 *60:51 0.05199452
16 *58:5 *60:23 0.05199452
17 *58:7 *84:13 0.03707911
18 *58:7 *84:15 0.03707911
19 *58:6 *118:8 0.07501918
20 *58:11 *118:8 0.08189433
21 *58:3 *118:8 0.02521418
22 *58:6 *131:22 0.04310232
23 *58:11 *131:22 0.04561703
24 *58:3 *131:22 0.002514713

*RES
1 *58:3 *58:4 1.0
2 *58:5 *58:6 0.5
3 *58:7 *58:8 0.5
4 *58:9 *58:10 1.0
5 *59:Y *58:4 0.4882354
6 *58:10 *26:D 0.2352942
7 *58:3 *58:11 0.02738095
8 *58:11 *58:6 2.540817
9 *58:12 *58:9 0.02738095
10 *58:8 *58:12 0.3907956
11 *58:5 *58:7 10.21708

*END

*D_NET *60 2.975261

*CONN
*I *26:Q O *L 0.0 *D DFFX1_RVT *C 25.824 19.464
*I *61:A2 I *L 511.8402 *C 20.831 19.288
*I *30:A2 I *L 405.9669 *C 18.834 20.92
*I *62:A3 I *L 391.832 *C 17.312 17.419
*I *63:A3 I *L 492.0692 *C 21.847 13.968
*I *64:A1 I *L 481.3457 *C 20.625 14.233
*I *65:A1 I *L 503.5117 *C 17.008 19.111
*I *66:A I *L 518.4735 *C 25.062 14.259
*N *60:9 *C 17.008 19.111
*N *60:10 *C 21.112 14.272
*N *60:11 *C 21.112 14.272
*N *60:12 *C 25.824 19.464
*N *60:13 *C 25.824 18.376
*N *60:14 *C 25.824 18.376
*N *60:15 *C 21.112 18.376
*N *60:16 *C 21.112 18.376
*N *60:17 *C 20.96 19.288
*N *60:18 *C 20.96 19.288
*N *60:19 *C 18.528 20.96
*N *60:20 *C 18.528 20.96
*N *60:21 *C 18.528 19.288
*N *60:22 *C 18.528 19.288
*N *60:23 *C 17.312 18.984
*N *60:24 *C 17.312 18.984
*N *60:25 *C 21.112 14.12
*N *60:26 *C 21.112 14.12
*N *60:27 *C 20.96 19.744
*N *60:28 *C 20.96 19.744
*N *60:29 *C 25.216 14.272
*N *60:30 *C 25.216 14.272
*N *60:31 *C 25.216 14.12
*N *60:32 *C 25.216 14.12
*N *60:33 *C 21.72 14.12
*N *60:34 *C 21.72 14.12
*N *60:35 *C 21.847 13.968
*N *60:36 *C 17.312 17.419
*N *60:37 *C 18.589 20.937
*N *60:38 *C 18.834 20.962
*N *60:39 *C 20.7 14.289
*N *60:40 *C 21.102 14.289
*N *60:41 *C 20.96 19.303
*N *60:42 *C 17.033 18.984
*N *60:43 *C 17.312 17.465
*N *60:44 *C 18.528 20.914
*N *60:45 *C 20.96 19.698
*N *60:46 *C 20.96 18.376
*N *60:47 *C 21.112 14.318
*N *60:48 *C 21.72 13.969
*N *60:49 *C 21.786 13.968
*N *60:50 *C 25.824 19.418
*N *60:51 *C 18.832 18.984
*N *60:52 *C 18.832 19.288

*CAP
1 *26:Q 0.0
2 *61:A2 0.006545703
3 *30:A2 0.03267696
4 *62:A3 0.0
5 *63:A3 0.0
6 *64:A1 0.07856985
7 *65:A1 0.0
8 *66:A 0.01398343
9 *60:9 0.007938801
10 *60:10 0.01666065
11 *60:11 0.007461387
12 *60:12 0.01525568
13 *60:13 0.1978592
14 *60:14 0.07303366
15 *60:15 0.1978592
16 *60:16 0.02156413
17 *60:17 0.03741892
18 *60:18 0.0243931
19 *60:19 0.01219102
20 *60:20 0.01718447
21 *60:21 0.0153635
22 *60:22 0.08245111
23 *60:23 0.00914235
24 *60:24 0.08005483
25 *60:25 0.01608409
26 *60:26 0.01353098
27 *60:27 0.01244332
28 *60:28 0.02116285
29 *60:29 0.01733176
30 *60:30 0.01398343
31 *60:31 0.148098
32 *60:32 0.01733176
33 *60:33 0.1641821
34 *60:34 0.006924517
35 *60:35 0.0135683
36 *60:36 0.01384361
37 *60:37 0.04229596
38 *60:38 0.007565474
39 *60:39 0.01215859
40 *60:40 0.07387265
41 *60:41 0.02770855
42 *60:42 0.02149365
43 *60:43 0.08034358
44 *60:44 0.09464213
45 *60:45 0.0336266
46 *60:46 0.01007301
47 *60:47 0.01783061
48 *60:48 0.0122779
49 *60:49 0.01892168
50 *60:50 0.08828934
51 *60:51 0.02207323
52 *60:52 0.0657133
53 *60:16 *20:8 0.07483383
54 *60:47 *20:15 0.07483383
55 *60:51 *58:5 0.05199452
56 *60:23 *58:5 0.05199452
57 *60:15 *72:11 0.02348971
58 *60:34 *72:4 0.002857427
59 *60:48 *72:4 0.002857427
60 *60:16 *72:20 0.03017141
61 *60:16 *72:21 0.04304352
62 *60:16 *72:19 0.02234767
63 *60:16 *72:16 0.00947556
64 *60:47 *78:16 0.2534439
65 *60:17 *84:15 0.02263227
66 *60:47 *84:21 0.01886539
67 *60:16 *84:16 0.01002193
68 *60:47 *84:20 0.01002193
69 *60:26 *84:21 0.006636983
70 *60:18 *84:16 0.04535671
71 *60:46 *84:16 0.04535671
72 *60:25 *124:5 0.02858043
73 *60:24 *169:6 0.02201338
74 *60:17 *172:6 0.04472596
75 *60:52 *172:4 0.04472596

*RES
1 *60:9 *65:A1 1.0
2 *60:10 *60:11 1.0
3 *60:12 *26:Q 1.0
4 *60:13 *60:14 0.5
5 *60:15 *60:16 0.5
6 *60:17 *60:18 0.5
7 *60:19 *60:20 1.0
8 *60:21 *60:22 0.5
9 *60:23 *60:24 0.5
10 *60:25 *60:26 0.5
11 *60:27 *60:28 1.0
12 *60:29 *60:30 1.0
13 *60:31 *60:32 0.5
14 *60:33 *60:34 0.5
15 *60:35 *63:A3 1.0
16 *60:36 *62:A3 1.0
17 *60:20 *60:37 0.04909091
18 *60:37 *30:A2 0.3981818
19 *30:A2 *60:38 0.04136364
20 *64:A1 *60:39 0.07853333
21 *64:A1 *60:40 0.5678571
22 *61:A2 *60:41 0.114
23 *60:41 *60:28 0.7754783
24 *60:11 *60:40 0.04750001
25 *66:A *60:30 0.30875
26 *60:42 *60:9 0.2459822
27 *60:42 *60:24 0.4070379
28 *60:36 *60:43 0.02738095
29 *60:43 *60:24 2.6178
30 *60:44 *60:19 0.02738096
31 *60:22 *60:44 2.809962
32 *60:45 *60:27 0.02738096
33 *60:46 *60:18 1.537005
34 *60:18 *60:45 0.6441602
35 *60:46 *60:16 0.1865124
36 *60:26 *60:10 0.1964045
37 *60:10 *60:47 0.05476191
38 *60:47 *60:16 7.148481
39 *60:48 *60:49 0.1539655
40 *60:49 *60:35 0.03388889
41 *60:48 *60:34 0.204836
42 *60:32 *60:29 0.2068502
43 *60:50 *60:12 0.02738095
44 *60:14 *60:50 1.770341
45 *60:23 *60:51 2.622665
46 *60:21 *60:52 0.4696042
47 *60:52 *60:17 3.704958
48 *60:51 *60:52 0.4428571
49 *60:25 *60:33 1.001152
50 *60:33 *60:31 6.145935
51 *60:15 *60:13 8.317689

*END

*D_NET *67 0.7505678

*CONN
*I *27:D I *L 496.4084 *C 22.511 22.425
*I *68:Y O *L 0.0 *D NAND2X0_RVT *C 17.464 22.083
*N *67:3 *C 22.328 23.24
*N *67:4 *C 22.328 23.24
*N *67:5 *C 22.328 22.632
*N *67:6 *C 22.328 22.632
*N *67:7 *C 18.376 22.632
*N *67:8 *C 18.376 22.632
*N *67:9 *C 18.376 22.632
*N *67:10 *C 18.366 22.632
*N *67:11 *C 22.328 22.313
*N *67:12 *C 22.328 23.194

*CAP
1 *27:D 0.01452768
2 *68:Y 0.06421694
3 *67:3 0.01037594
4 *67:4 0.05404792
5 *67:5 0.1067922
6 *67:6 0.02786514
7 *67:7 0.1067922
8 *67:8 0.01498833
9 *67:9 0.0229394
10 *67:10 0.07216802
11 *67:11 0.06857561
12 *67:12 0.03824108
13 *67:5 *53:20 0.07451867
14 *67:7 *53:20 0.07451867

*RES
1 *67:3 *67:4 1.0
2 *67:5 *67:6 0.5
3 *67:7 *67:8 0.5
4 *67:8 *67:9 1.0
5 *68:Y *67:10 1.714
6 *67:10 *67:9 0.002564102
7 *67:11 *27:D 0.21125
8 *67:11 *67:4 1.751
9 *67:12 *67:3 0.02738096
10 *67:6 *67:12 0.9200649
11 *67:7 *67:5 6.961174

*END

*D_NET *69 1.984129

*CONN
*I *27:Q O *L 0.0 *D DFFX1_RVT *C 25.844 22.768
*I *64:A3 I *L 556.037 *C 20.048 13.995
*I *70:A I *L 688.1503 *C 17.462 14.269
*I *71:A1 I *L 450.5898 *C 18.378 13.928
*N *69:5 *C 18.528 13.995
*N *69:6 *C 18.528 13.995
*N *69:7 *C 18.528 14.12
*N *69:8 *C 18.528 14.12
*N *69:9 *C 20.048 16.248
*N *69:10 *C 20.048 16.248
*N *69:11 *C 25.976 16.248
*N *69:12 *C 25.976 16.248
*N *69:13 *C 25.844 22.768
*N *69:14 *C 20.048 13.995
*N *69:15 *C 17.768 14.12
*N *69:16 *C 17.768 14.12
*N *69:17 *C 17.92 14.12
*N *69:18 *C 17.92 14.12
*N *69:19 *C 20.048 14.424
*N *69:20 *C 20.048 14.424
*N *69:21 *C 17.753 14.257
*N *69:22 *C 20.048 14.041
*N *69:23 *C 25.844 22.722
*N *69:24 *C 25.844 21.872
*N *69:25 *C 25.976 21.872
*N *69:26 *C 19.895 14.12
*N *69:27 *C 20.048 14.12

*CAP
1 *27:Q 0.0
2 *64:A3 0.0
3 *70:A 0.0306574
4 *71:A1 0.04436863
5 *69:5 0.02443113
6 *69:6 0.04436863
7 *69:7 0.05210697
8 *69:8 0.02443113
9 *69:9 0.2605801
10 *69:10 0.1150131
11 *69:11 0.2605801
12 *69:12 0.2731267
13 *69:13 0.01017348
14 *69:14 0.01459902
15 *69:15 0.01910045
16 *69:16 0.00888345
17 *69:17 0.03354644
18 *69:18 0.01910045
19 *69:19 0.01993105
20 *69:20 0.1401035
21 *69:21 0.03954085
22 *69:22 0.03968953
23 *69:23 0.04053289
24 *69:24 0.03766367
25 *69:25 0.2804309
26 *69:26 0.02607629
27 *69:27 0.02744679
28 *69:7 *134:8 0.09764667

*RES
1 *69:5 *69:6 1.0
2 *69:7 *69:8 0.5
3 *69:9 *69:10 0.5
4 *69:11 *69:12 0.5
5 *69:13 *27:Q 1.0
6 *69:14 *64:A3 1.0
7 *69:15 *69:16 1.0
8 *69:17 *69:18 0.5
9 *69:19 *69:20 0.5
10 *70:A *69:21 0.382375
11 *69:16 *69:21 0.1080625
12 *71:A1 *69:6 0.175641
13 *69:15 *69:18 0.09097686
14 *69:5 *69:8 0.1488095
15 *69:14 *69:22 0.02738095
16 *69:22 *69:20 0.602091
17 *69:20 *69:10 3.158549
18 *69:23 *69:13 0.02738095
19 *69:24 *69:23 1.426851